Program Version,EnergyPlus-Windows-64 8.0.0.008, YMD=2013.07.10 15:54
! This file shows details about the branches, nodes, and other
! elements of the flow connections.
! This file is intended for use in "debugging" potential problems
! that may also be detected by the program, but may be more easily
! identified by "eye".
! This file is also intended to support software which draws a
! schematic diagram of the HVAC system.
! ===============================================================
! #Nodes,<Number of Unique Nodes>
 #Nodes,24                  
! <Node>,<NodeNumber>,<Node Name>,<Node Fluid Type>,<# Times Node Referenced After Definition>
 Node,1,ZONEAIRNODEL0_ZONE1,Air,0
 Node,2,RETURNOUTLETL0_ZONE1,Air,0
 Node,3,SUPPLYINLETL0_ZONE1,Air,1
 Node,4,ZONEAIRNODEL0_ZONE2,Air,0
 Node,5,RETURNOUTLETL0_ZONE2,Air,0
 Node,6,SUPPLYINLETL0_ZONE2,Air,1
 Node,7,ZONEAIRNODEL1_ZONE1,Air,0
 Node,8,RETURNOUTLETL1_ZONE1,Air,0
 Node,9,SUPPLYINLETL1_ZONE1,Air,1
 Node,10,ZONEAIRNODEL1_ZONE2,Air,0
 Node,11,RETURNOUTLETL1_ZONE2,Air,0
 Node,12,SUPPLYINLETL1_ZONE2,Air,1
 Node,13,ZONEAIRNODEL2_ZONE1,Air,0
 Node,14,RETURNOUTLETL2_ZONE1,Air,0
 Node,15,SUPPLYINLETL2_ZONE1,Air,1
 Node,16,ZONEAIRNODEL2_ZONE2,Air,0
 Node,17,RETURNOUTLETL2_ZONE2,Air,0
 Node,18,SUPPLYINLETL2_ZONE2,Air,1
 Node,19,IDEALLOADSAIRSYSTEML0_ZONE1 OUTDOOR AIR INLET NODE,Air,1
 Node,20,IDEALLOADSAIRSYSTEML0_ZONE2 OUTDOOR AIR INLET NODE,Air,1
 Node,21,IDEALLOADSAIRSYSTEML1_ZONE1 OUTDOOR AIR INLET NODE,Air,1
 Node,22,IDEALLOADSAIRSYSTEML1_ZONE2 OUTDOOR AIR INLET NODE,Air,1
 Node,23,IDEALLOADSAIRSYSTEML2_ZONE1 OUTDOOR AIR INLET NODE,Air,1
 Node,24,IDEALLOADSAIRSYSTEML2_ZONE2 OUTDOOR AIR INLET NODE,Air,1
! ===============================================================
! Suspicious nodes have 0 references.  It is normal for some nodes, however.
! Listing nodes with 0 references (culled from previous list):
! <Suspicious Node>,<NodeNumber>,<Node Name>,<Node Fluid Type>,<# Times Node Referenced After Definition>
 Suspicious Node,1,ZONEAIRNODEL0_ZONE1,Air,0
 Suspicious Node,2,RETURNOUTLETL0_ZONE1,Air,0
 Suspicious Node,4,ZONEAIRNODEL0_ZONE2,Air,0
 Suspicious Node,5,RETURNOUTLETL0_ZONE2,Air,0
 Suspicious Node,7,ZONEAIRNODEL1_ZONE1,Air,0
 Suspicious Node,8,RETURNOUTLETL1_ZONE1,Air,0
 Suspicious Node,10,ZONEAIRNODEL1_ZONE2,Air,0
 Suspicious Node,11,RETURNOUTLETL1_ZONE2,Air,0
 Suspicious Node,13,ZONEAIRNODEL2_ZONE1,Air,0
 Suspicious Node,14,RETURNOUTLETL2_ZONE1,Air,0
 Suspicious Node,16,ZONEAIRNODEL2_ZONE2,Air,0
 Suspicious Node,17,RETURNOUTLETL2_ZONE2,Air,0
! ===============================================================
! <#Branch Lists>,<Number of Branch Lists>
 #Branch Lists,0
! <Branch List>,<Branch List Count>,<Branch List Name>,<Loop Name>,<Loop Type>,<Number of Branches>
! <Branch>,<Branch Count>,<Branch Name>,<Loop Name>,<Loop Type>,<Branch Inlet Node Name>,<Branch Outlet Node Name>
! ===============================================================
! <#Supply Air Paths>,<Number of Supply Air Paths>
 #Supply Air Paths,0
! <Supply Air Path>,<Supply Air Path Count>,<Supply Air Path Name>,<AirLoopHVAC Name>
! <#Components on Supply Air Path>,<Number of Components>
! <Supply Air Path Component>,<Component Count>,<Component Type>,<Component Name>,<AirLoopHVAC Name>
! <#Outlet Nodes on Supply Air Path Component>,<Number of Nodes>
! <Supply Air Path Component Nodes>,<Node Count>,<Component Type>,<Component Name>,<Inlet Node Name>,<Outlet Node Name>,<AirLoopHVAC Name>
! ===============================================================
! <#Return Air Paths>,<Number of Return Air Paths>
 #Return Air Paths,0
! <Return Air Path>,<Return Air Path Count>,<Return Air Path Name>,<AirLoopHVAC Name>
! <#Components on Return Air Path>,<Number of Components>
! <Return Air Path Component>,<Component Count>,<Component Type>,<Component Name>,<AirLoopHVAC Name>
! <#Inlet Nodes on Return Air Path Component>,<Number of Nodes>
! <Return Air Path Component Nodes>,<Node Count>,<Component Type>,<Component Name>,<Inlet Node Name>,<Outlet Node Name>,<AirLoopHVAC Name>
! ===============================================================
! #Outdoor Air Nodes,<Number of Outdoor Air Nodes>
 #Outdoor Air Nodes,6                   
! <Outdoor Air Node>,<NodeNumber>,<Node Name>
 Outdoor Air Node,19,IDEALLOADSAIRSYSTEML0_ZONE1 OUTDOOR AIR INLET NODE
 Outdoor Air Node,20,IDEALLOADSAIRSYSTEML0_ZONE2 OUTDOOR AIR INLET NODE
 Outdoor Air Node,21,IDEALLOADSAIRSYSTEML1_ZONE1 OUTDOOR AIR INLET NODE
 Outdoor Air Node,22,IDEALLOADSAIRSYSTEML1_ZONE2 OUTDOOR AIR INLET NODE
 Outdoor Air Node,23,IDEALLOADSAIRSYSTEML2_ZONE1 OUTDOOR AIR INLET NODE
 Outdoor Air Node,24,IDEALLOADSAIRSYSTEML2_ZONE2 OUTDOOR AIR INLET NODE
! ===============================================================
! <#Component Sets>,<Number of Component Sets>
 #Component Sets,0
! <Component Set>,<Component Set Count>,<Parent Object Type>,<Parent Object Name>,<Component Type>,<Component Name>,<Inlet Node ID>,<Outlet Node ID>,<Description>
! ===============================================================
! <# Plant Loops>,<Number of Plant Loops>
 #Plant Loops,0
! <Plant Loop>,<Plant Loop Name>,<Loop Type>,<Inlet Node Name>,<Outlet Node Name>,<Branch List>,<Connector List>
! <Plant Loop Connector>,<Connector Type>,<Connector Name>,<Loop Name>,<Loop Type>,<Number of Inlets/Outlets>
! <Plant Loop Connector Branches>,<Connector Node Count>,<Connector Type>,<Connector Name>,<Inlet Branch>,<Outlet Branch>,<Loop Name>,<Loop Type>
! <Plant Loop Connector Nodes>,<Connector Node Count>,<Connector Type>,<Connector Name>,<Inlet Node>,<Outlet Node>,<Loop Name>,<Loop Type>
! <Plant Loop Supply Connection>,<Plant Loop Name>,<Supply Side Outlet Node Name>,<Demand Side Inlet Node Name>
! <Plant Loop Return Connection>,<Plant Loop Name>,<Demand Side Outlet Node Name>,<Supply Side Inlet Node Name>
! ===============================================================
! <# Condenser Loops>,<Number of Condenser Loops>
 #Condenser Loops,0
! <Condenser Loop>,<Condenser Loop Name>,<Loop Type>,<Inlet Node Name>,<Outlet Node Name>,<Branch List>,<Connector List>
! <Condenser Loop Connector>,<Connector Type>,<Connector Name>,<Loop Name>,<Loop Type>,<Number of Inlets/Outlets>
! <Condenser Loop Connector Branches>,<Connector Node Count>,<Connector Type>,<Connector Name>,<Inlet Branch>,<Outlet Branch>,<Loop Name>,<Loop Type>
! <Condenser Loop Connector Nodes>,<Connector Node Count>,<Connector Type>,<Connector Name>,<Inlet Node>,<Outlet Node>,<Loop Name>,<Loop Type>
! <Condenser Loop Supply Connection>,<Condenser Loop Name>,<Supply Side Outlet Node Name>,<Demand Side Inlet Node Name>
! <Condenser Loop Return Connection>,<Condenser Loop Name>,<Demand Side Outlet Node Name>,<Supply Side Inlet Node Name>
! ===============================================================
! <# Controlled Zones>,<Number of Controlled Zones>
 #Controlled Zones,6
! <Controlled Zone>,<Controlled Zone Name>,<Equip List Name>,<Control List Name>,<Zone Node Name>,<Return Air Node Name>,<# Inlet Nodes>,<# Exhaust Nodes>
! <Controlled Zone Inlet>,<Inlet Node Count>,<Controlled Zone Name>,<Supply Air Inlet Node Name>,<SD Sys:Cooling/Heating [DD:Cooling] Inlet Node Name>,<DD Sys:Heating Inlet Node Name>
! <Controlled Zone Exhaust>,<Exhaust Node Count>,<Controlled Zone Name>,<Exhaust Air Node Name>
 Controlled Zone,L0_ZONE1,EQUIPMENTL0_ZONE1,,ZONEAIRNODEL0_ZONE1,RETURNOUTLETL0_ZONE1,1,0
   Controlled Zone Inlet,1,L0_ZONE1,SUPPLYINLETL0_ZONE1,Undefined,N/A
 Controlled Zone,L0_ZONE2,EQUIPMENTL0_ZONE2,,ZONEAIRNODEL0_ZONE2,RETURNOUTLETL0_ZONE2,1,0
   Controlled Zone Inlet,1,L0_ZONE2,SUPPLYINLETL0_ZONE2,Undefined,N/A
 Controlled Zone,L1_ZONE1,EQUIPMENTL1_ZONE1,,ZONEAIRNODEL1_ZONE1,RETURNOUTLETL1_ZONE1,1,0
   Controlled Zone Inlet,1,L1_ZONE1,SUPPLYINLETL1_ZONE1,Undefined,N/A
 Controlled Zone,L1_ZONE2,EQUIPMENTL1_ZONE2,,ZONEAIRNODEL1_ZONE2,RETURNOUTLETL1_ZONE2,1,0
   Controlled Zone Inlet,1,L1_ZONE2,SUPPLYINLETL1_ZONE2,Undefined,N/A
 Controlled Zone,L2_ZONE1,EQUIPMENTL2_ZONE1,,ZONEAIRNODEL2_ZONE1,RETURNOUTLETL2_ZONE1,1,0
   Controlled Zone Inlet,1,L2_ZONE1,SUPPLYINLETL2_ZONE1,Undefined,N/A
 Controlled Zone,L2_ZONE2,EQUIPMENTL2_ZONE2,,ZONEAIRNODEL2_ZONE2,RETURNOUTLETL2_ZONE2,1,0
   Controlled Zone Inlet,1,L2_ZONE2,SUPPLYINLETL2_ZONE2,Undefined,N/A
! ===============================================================
! <#Zone Equipment Lists>,<Number of Zone Equipment Lists>
 #Zone Equipment Lists,6
! <Zone Equipment List>,<Zone Equipment List Count>,<Zone Equipment List Name>,<Zone Name>,<Number of Components>
! <Zone Equipment Component>,<Component Count>,<Component Type>,<Component Name>,<Zone Name>,<Heating Priority>,<Cooling Priority>
 Zone Equipment List,1,EQUIPMENTL0_ZONE1,L0_ZONE1,1
   Zone Equipment Component,1,ZONEHVAC:IDEALLOADSAIRSYSTEM,IDEALLOADSAIRSYSTEML0_ZONE1,L0_ZONE1,1,1
 Zone Equipment List,2,EQUIPMENTL0_ZONE2,L0_ZONE2,1
   Zone Equipment Component,1,ZONEHVAC:IDEALLOADSAIRSYSTEM,IDEALLOADSAIRSYSTEML0_ZONE2,L0_ZONE2,1,1
 Zone Equipment List,3,EQUIPMENTL1_ZONE1,L1_ZONE1,1
   Zone Equipment Component,1,ZONEHVAC:IDEALLOADSAIRSYSTEM,IDEALLOADSAIRSYSTEML1_ZONE1,L1_ZONE1,1,1
 Zone Equipment List,4,EQUIPMENTL1_ZONE2,L1_ZONE2,1
   Zone Equipment Component,1,ZONEHVAC:IDEALLOADSAIRSYSTEM,IDEALLOADSAIRSYSTEML1_ZONE2,L1_ZONE2,1,1
 Zone Equipment List,5,EQUIPMENTL2_ZONE1,L2_ZONE1,1
   Zone Equipment Component,1,ZONEHVAC:IDEALLOADSAIRSYSTEM,IDEALLOADSAIRSYSTEML2_ZONE1,L2_ZONE1,1,1
 Zone Equipment List,6,EQUIPMENTL2_ZONE2,L2_ZONE2,1
   Zone Equipment Component,1,ZONEHVAC:IDEALLOADSAIRSYSTEM,IDEALLOADSAIRSYSTEML2_ZONE2,L2_ZONE2,1,1
! ===============================================================
! <#Dual Duct Damper Connections>,<Number of Dual Duct Damper Connections>
 #Dual Duct Damper Connections,0
! <Dual Duct Damper>,<Dual Duct Damper Count>,<Dual Duct Damper Name>,<Inlet Node>,<Outlet Node>,<Inlet Node Type>,<AirLoopHVAC Name>
! ===============================================================
! <#AirLoopHVACs>,<Number of AirLoopHVACs>
 #AirLoopHVACs,0
! <AirLoopHVAC>,<Air Loop Name>,<# Return Nodes>,<# Supply Nodes>,<# Zones Cooled>,<# Zones Heated>,<Outdoor Air Used>
! <AirLoop Return Connections>,<Connection Count>,<AirLoopHVAC Name>,<Zn Eqp Return Node #>,<Zn Eqp Return Node Name>,<AirLoop Return Node #>,<Air Loop Return Node Name>
! <AirLoop Supply Connections>,<Connection Count>,<AirLoopHVAC Name>,<Zn Eqp Supply Node #>,<Zn Eqp Supply Node Name>,<AirLoop Supply Node #>,<Air Loop Supply Node Name>
! <Cooled Zone Info>,<Cooled Zone Count>,<Cooled Zone Name>,<Cooled Zone Inlet Node #>,<Cooled Zone Inlet Node Name>,<AirLoopHVAC Name>
! <Heated Zone Info>,<Heated Zone Count>,<Heated Zone Name>,<Heated Zone Inlet Node #>,<Heated Zone Inlet Node Name>,<AirLoopHVAC Name>
! <Outdoor Air Connections>,<OA Inlet Node #>,<OA Return Air Inlet Node Name>,<OA Outlet Node #>,<OA Mixed Air Outlet Node Name>,<AirLoopHVAC Name>
! <AirLoopHVAC Connector>,<Connector Type>,<Connector Name>,<Loop Name>,<Loop Type>,<Number of Inlets/Outlets>
! <AirLoopHVAC Connector Branches>,<Connector Node Count>,<Connector Type>,<Connector Name>,<Inlet Branch>,<Outlet Branch>,<Loop Name>,<Loop Type>
! <AirLoopHVAC Connector Nodes>,<Connector Node Count>,<Connector Type>,<Connector Name>,<Inlet Node>,<Outlet Node>,<Loop Name>,<Loop Type>
! ===============================================================
! <#Parent Node Connections>,<Number of Parent Node Connections>
 #Parent Node Connections,0
! <Parent Node Connection>,<Node Name>,<Node ObjectType>,<Node ObjectName>,<Node ConnectionType>,<Node FluidStream>
! ===============================================================
! <#Non-Parent Node Connections>,<Number of Non-Parent Node Connections>
 #Non-Parent Node Connections,36
! <Non-Parent Node Connection>,<Node Name>,<Node ObjectType>,<Node ObjectName>,<Node ConnectionType>,<Node FluidStream>
 Non-Parent Node Connection,ZONEAIRNODEL0_ZONE1,ZONEHVAC:EQUIPMENTCONNECTIONS,L0_ZONE1,ZoneNode,1
 Non-Parent Node Connection,RETURNOUTLETL0_ZONE1,ZONEHVAC:EQUIPMENTCONNECTIONS,L0_ZONE1,ZoneReturn,1
 Non-Parent Node Connection,SUPPLYINLETL0_ZONE1,ZONEHVAC:EQUIPMENTCONNECTIONS,L0_ZONE1,ZoneInlet,1
 Non-Parent Node Connection,ZONEAIRNODEL0_ZONE2,ZONEHVAC:EQUIPMENTCONNECTIONS,L0_ZONE2,ZoneNode,1
 Non-Parent Node Connection,RETURNOUTLETL0_ZONE2,ZONEHVAC:EQUIPMENTCONNECTIONS,L0_ZONE2,ZoneReturn,1
 Non-Parent Node Connection,SUPPLYINLETL0_ZONE2,ZONEHVAC:EQUIPMENTCONNECTIONS,L0_ZONE2,ZoneInlet,1
 Non-Parent Node Connection,ZONEAIRNODEL1_ZONE1,ZONEHVAC:EQUIPMENTCONNECTIONS,L1_ZONE1,ZoneNode,1
 Non-Parent Node Connection,RETURNOUTLETL1_ZONE1,ZONEHVAC:EQUIPMENTCONNECTIONS,L1_ZONE1,ZoneReturn,1
 Non-Parent Node Connection,SUPPLYINLETL1_ZONE1,ZONEHVAC:EQUIPMENTCONNECTIONS,L1_ZONE1,ZoneInlet,1
 Non-Parent Node Connection,ZONEAIRNODEL1_ZONE2,ZONEHVAC:EQUIPMENTCONNECTIONS,L1_ZONE2,ZoneNode,1
 Non-Parent Node Connection,RETURNOUTLETL1_ZONE2,ZONEHVAC:EQUIPMENTCONNECTIONS,L1_ZONE2,ZoneReturn,1
 Non-Parent Node Connection,SUPPLYINLETL1_ZONE2,ZONEHVAC:EQUIPMENTCONNECTIONS,L1_ZONE2,ZoneInlet,1
 Non-Parent Node Connection,ZONEAIRNODEL2_ZONE1,ZONEHVAC:EQUIPMENTCONNECTIONS,L2_ZONE1,ZoneNode,1
 Non-Parent Node Connection,RETURNOUTLETL2_ZONE1,ZONEHVAC:EQUIPMENTCONNECTIONS,L2_ZONE1,ZoneReturn,1
 Non-Parent Node Connection,SUPPLYINLETL2_ZONE1,ZONEHVAC:EQUIPMENTCONNECTIONS,L2_ZONE1,ZoneInlet,1
 Non-Parent Node Connection,ZONEAIRNODEL2_ZONE2,ZONEHVAC:EQUIPMENTCONNECTIONS,L2_ZONE2,ZoneNode,1
 Non-Parent Node Connection,RETURNOUTLETL2_ZONE2,ZONEHVAC:EQUIPMENTCONNECTIONS,L2_ZONE2,ZoneReturn,1
 Non-Parent Node Connection,SUPPLYINLETL2_ZONE2,ZONEHVAC:EQUIPMENTCONNECTIONS,L2_ZONE2,ZoneInlet,1
 Non-Parent Node Connection,SUPPLYINLETL0_ZONE1,ZONEHVAC:IDEALLOADSAIRSYSTEM,IDEALLOADSAIRSYSTEML0_ZONE1,Outlet,1
 Non-Parent Node Connection,IDEALLOADSAIRSYSTEML0_ZONE1 OUTDOOR AIR INLET NODE,ZONEHVAC:IDEALLOADSAIRSYSTEM,IDEALLOADSAIRSYSTEML0_ZONE1,Outlet,1
 Non-Parent Node Connection,IDEALLOADSAIRSYSTEML0_ZONE1 OUTDOOR AIR INLET NODE,OUTDOORAIR:NODE,OutdoorAir:Node,OutdoorAir,1
 Non-Parent Node Connection,SUPPLYINLETL0_ZONE2,ZONEHVAC:IDEALLOADSAIRSYSTEM,IDEALLOADSAIRSYSTEML0_ZONE2,Outlet,1
 Non-Parent Node Connection,IDEALLOADSAIRSYSTEML0_ZONE2 OUTDOOR AIR INLET NODE,ZONEHVAC:IDEALLOADSAIRSYSTEM,IDEALLOADSAIRSYSTEML0_ZONE2,Outlet,1
 Non-Parent Node Connection,IDEALLOADSAIRSYSTEML0_ZONE2 OUTDOOR AIR INLET NODE,OUTDOORAIR:NODE,OutdoorAir:Node,OutdoorAir,2
 Non-Parent Node Connection,SUPPLYINLETL1_ZONE1,ZONEHVAC:IDEALLOADSAIRSYSTEM,IDEALLOADSAIRSYSTEML1_ZONE1,Outlet,1
 Non-Parent Node Connection,IDEALLOADSAIRSYSTEML1_ZONE1 OUTDOOR AIR INLET NODE,ZONEHVAC:IDEALLOADSAIRSYSTEM,IDEALLOADSAIRSYSTEML1_ZONE1,Outlet,1
 Non-Parent Node Connection,IDEALLOADSAIRSYSTEML1_ZONE1 OUTDOOR AIR INLET NODE,OUTDOORAIR:NODE,OutdoorAir:Node,OutdoorAir,3
 Non-Parent Node Connection,SUPPLYINLETL1_ZONE2,ZONEHVAC:IDEALLOADSAIRSYSTEM,IDEALLOADSAIRSYSTEML1_ZONE2,Outlet,1
 Non-Parent Node Connection,IDEALLOADSAIRSYSTEML1_ZONE2 OUTDOOR AIR INLET NODE,ZONEHVAC:IDEALLOADSAIRSYSTEM,IDEALLOADSAIRSYSTEML1_ZONE2,Outlet,1
 Non-Parent Node Connection,IDEALLOADSAIRSYSTEML1_ZONE2 OUTDOOR AIR INLET NODE,OUTDOORAIR:NODE,OutdoorAir:Node,OutdoorAir,4
 Non-Parent Node Connection,SUPPLYINLETL2_ZONE1,ZONEHVAC:IDEALLOADSAIRSYSTEM,IDEALLOADSAIRSYSTEML2_ZONE1,Outlet,1
 Non-Parent Node Connection,IDEALLOADSAIRSYSTEML2_ZONE1 OUTDOOR AIR INLET NODE,ZONEHVAC:IDEALLOADSAIRSYSTEM,IDEALLOADSAIRSYSTEML2_ZONE1,Outlet,1
 Non-Parent Node Connection,IDEALLOADSAIRSYSTEML2_ZONE1 OUTDOOR AIR INLET NODE,OUTDOORAIR:NODE,OutdoorAir:Node,OutdoorAir,5
 Non-Parent Node Connection,SUPPLYINLETL2_ZONE2,ZONEHVAC:IDEALLOADSAIRSYSTEM,IDEALLOADSAIRSYSTEML2_ZONE2,Outlet,1
 Non-Parent Node Connection,IDEALLOADSAIRSYSTEML2_ZONE2 OUTDOOR AIR INLET NODE,ZONEHVAC:IDEALLOADSAIRSYSTEM,IDEALLOADSAIRSYSTEML2_ZONE2,Outlet,1
 Non-Parent Node Connection,IDEALLOADSAIRSYSTEML2_ZONE2 OUTDOOR AIR INLET NODE,OUTDOORAIR:NODE,OutdoorAir:Node,OutdoorAir,6
