  0
SECTION
  2
ENTITIES
999
DXF created from EnergyPlus
999
Program Version,EnergyPlus-Windows-64 8.0.0.008, YMD=2013.07.10 15:54
999
Polygon Action,TRIANGULATE3DFACE
999
Color Scheme,ORIGINAL
999
Text - True North
  0
TEXT
  8
1
  6
Continuous
 62
  3
 10
     -110.05578
 20
     -173.87279
 30
        0.10000
 40
 .25
  1
True North
 41
 0.0
  7
MONOTXT
210
0.0
220
0.0
230
1.0
999
Text - Building Title
  0
TEXT
  8
1
  6
Continuous
 62
  3
 10
     -113.05578
 20
     -177.87279
 30
        0.10000
 40
 .4
  1
Building - ANAR.ch
 41
 0.0
  7
MONOTXT
210
0.0
220
0.0
230
1.0
999
North Arrow Stem
  0
3DFACE
  8
1
 62
  3
 10
     -109.05578
 20
     -173.87279
 30
        0.10000
 11
     -109.05578
 21
     -173.87279
 31
        0.00000
 12
     -109.05578
 22
     -176.87279
 32
        0.00000
 13
     -109.05578
 23
     -176.87279
 33
        0.10000
999
North Arrow Head 1
  0
3DFACE
  8
1
 62
  3
 10
     -109.05578
 20
     -173.87279
 30
        0.10000
 11
     -109.05578
 21
     -173.87279
 31
        0.00000
 12
     -109.55578
 22
     -174.73881
 32
        0.00000
 13
     -109.55578
 23
     -174.73881
 33
        0.10000
999
North Arrow Head 2
  0
3DFACE
  8
1
 62
  3
 10
     -109.05578
 20
     -173.87279
 30
        0.10000
 11
     -109.05578
 21
     -173.87279
 31
        0.00000
 12
     -108.55578
 22
     -174.73881
 32
        0.00000
 13
     -108.55578
 23
     -174.73881
 33
        0.10000
999
North Arrow Side 1
  0
3DFACE
  8
1
 62
  3
 10
     -109.55578
 20
     -172.37279
 30
        0.10000
 11
     -109.55578
 21
     -172.37279
 31
        0.00000
 12
     -109.55578
 22
     -173.37279
 32
        0.00000
 13
     -109.55578
 23
     -173.37279
 33
        0.10000
999
North Arrow Side 2
  0
3DFACE
  8
1
 62
  3
 10
     -109.55578
 20
     -172.37279
 30
        0.10000
 11
     -109.55578
 21
     -172.37279
 31
        0.00000
 12
     -108.55578
 22
     -173.37279
 32
        0.00000
 13
     -108.55578
 23
     -173.37279
 33
        0.10000
999
North Arrow Side 3
  0
3DFACE
  8
1
 62
  3
 10
     -108.55578
 20
     -172.37279
 30
        0.10000
 11
     -108.55578
 21
     -172.37279
 31
        0.00000
 12
     -108.55578
 22
     -173.37279
 32
        0.00000
 13
     -108.55578
 23
     -173.37279
 33
        0.10000
999
Zone Names
999
Zone=1:L0_ZONE1
999
Zone=2:L0_ZONE2
999
Zone=3:L1_ZONE1
999
Zone=4:L1_ZONE2
999
Zone=5:L2_ZONE1
999
Zone=6:L2_ZONE2
999
Fixed Shading:FACE_WALL_316841782
  0
3DFACE
  8
Fixed Shading
 62
  5
 10
      -32.37431
 20
       61.52502
 30
       84.03271
 11
      -32.37431
 21
       61.52502
 31
        0.00000
 12
      -25.39543
 22
       41.02142
 32
        0.00000
 13
      -25.39543
 23
       41.02142
 33
       84.03271
999
Fixed Shading:Mir-FACE_WALL_316841782
  0
3DFACE
  8
Fixed Shading
 62
  5
 10
      -25.39543
 20
       41.02142
 30
       84.03271
 11
      -25.39543
 21
       41.02142
 31
        0.00000
 12
      -32.37431
 22
       61.52502
 32
        0.00000
 13
      -32.37431
 23
       61.52502
 33
       84.03271
999
Fixed Shading:FACE_WALL_1547869161
  0
3DFACE
  8
Fixed Shading
 62
  5
 10
       11.51339
 20
       53.58423
 30
       84.03271
 11
       11.51339
 21
       53.58423
 31
        0.00000
 12
      -25.39543
 22
       41.02142
 32
        0.00000
 13
      -25.39543
 23
       41.02142
 33
       84.03271
999
Fixed Shading:Mir-FACE_WALL_1547869161
  0
3DFACE
  8
Fixed Shading
 62
  5
 10
      -25.39543
 20
       41.02142
 30
       84.03271
 11
      -25.39543
 21
       41.02142
 31
        0.00000
 12
       11.51339
 22
       53.58423
 32
        0.00000
 13
       11.51339
 23
       53.58423
 33
       84.03271
999
Fixed Shading:FACE_WALL_420089169
  0
3DFACE
  8
Fixed Shading
 62
  5
 10
       11.51339
 20
       53.58423
 30
       84.03271
 11
       11.51339
 21
       53.58423
 31
        0.00000
 12
        4.53451
 22
       74.08788
 32
        0.00000
 13
        4.53451
 23
       74.08788
 33
       84.03271
999
Fixed Shading:Mir-FACE_WALL_420089169
  0
3DFACE
  8
Fixed Shading
 62
  5
 10
        4.53451
 20
       74.08788
 30
       84.03271
 11
        4.53451
 21
       74.08788
 31
        0.00000
 12
       11.51339
 22
       53.58423
 32
        0.00000
 13
       11.51339
 23
       53.58423
 33
       84.03271
999
Fixed Shading:FACE_WALL_1659915694
  0
3DFACE
  8
Fixed Shading
 62
  5
 10
        4.53451
 20
       74.08788
 30
       84.03271
 11
        4.53451
 21
       74.08788
 31
        0.00000
 12
      -32.37431
 22
       61.52502
 32
        0.00000
 13
      -32.37431
 23
       61.52502
 33
       84.03271
999
Fixed Shading:Mir-FACE_WALL_1659915694
  0
3DFACE
  8
Fixed Shading
 62
  5
 10
      -32.37431
 20
       61.52502
 30
       84.03271
 11
      -32.37431
 21
       61.52502
 31
        0.00000
 12
        4.53451
 22
       74.08788
 32
        0.00000
 13
        4.53451
 23
       74.08788
 33
       84.03271
999
Fixed Shading:FACE_WALL_243010881
  0
3DFACE
  8
Fixed Shading
 62
  5
 10
      -50.12135
 20
       76.69139
 30
       16.83666
 11
      -50.12135
 21
       76.69139
 31
        0.00000
 12
      -33.87921
 22
       28.24288
 32
        0.00000
 13
      -33.87921
 23
       28.24288
 33
       16.83666
999
Fixed Shading:Mir-FACE_WALL_243010881
  0
3DFACE
  8
Fixed Shading
 62
  5
 10
      -33.87921
 20
       28.24288
 30
       16.83666
 11
      -33.87921
 21
       28.24288
 31
        0.00000
 12
      -50.12135
 22
       76.69139
 32
        0.00000
 13
      -50.12135
 23
       76.69139
 33
       16.83666
999
Fixed Shading:FACE_WALL_1917464020
  0
3DFACE
  8
Fixed Shading
 62
  5
 10
      -82.81353
 20
       11.83755
 30
       16.83666
 11
      -82.81353
 21
       11.83755
 31
        0.00000
 12
      -99.05578
 22
       60.28612
 32
        0.00000
 13
      -99.05578
 23
       60.28612
 33
       16.83666
999
Fixed Shading:Mir-FACE_WALL_1917464020
  0
3DFACE
  8
Fixed Shading
 62
  5
 10
      -99.05578
 20
       60.28612
 30
       16.83666
 11
      -99.05578
 21
       60.28612
 31
        0.00000
 12
      -82.81353
 22
       11.83755
 32
        0.00000
 13
      -82.81353
 23
       11.83755
 33
       16.83666
999
Fixed Shading:FACE_WALL_1678177258
  0
3DFACE
  8
Fixed Shading
 62
  5
 10
      -99.05578
 20
       60.28612
 30
       16.83666
 11
      -99.05578
 21
       60.28612
 31
        0.00000
 12
      -50.12135
 22
       76.69139
 32
        0.00000
 13
      -50.12135
 23
       76.69139
 33
       16.83666
999
Fixed Shading:Mir-FACE_WALL_1678177258
  0
3DFACE
  8
Fixed Shading
 62
  5
 10
      -50.12135
 20
       76.69139
 30
       16.83666
 11
      -50.12135
 21
       76.69139
 31
        0.00000
 12
      -99.05578
 22
       60.28612
 32
        0.00000
 13
      -99.05578
 23
       60.28612
 33
       16.83666
999
Fixed Shading:FACE_WALL_74955508
  0
3DFACE
  8
Fixed Shading
 62
  5
 10
      -33.87921
 20
       28.24288
 30
       16.83666
 11
      -33.87921
 21
       28.24288
 31
        0.00000
 12
      -82.81353
 22
       11.83755
 32
        0.00000
 13
      -82.81353
 23
       11.83755
 33
       16.83666
999
Fixed Shading:Mir-FACE_WALL_74955508
  0
3DFACE
  8
Fixed Shading
 62
  5
 10
      -82.81353
 20
       11.83755
 30
       16.83666
 11
      -82.81353
 21
       11.83755
 31
        0.00000
 12
      -33.87921
 22
       28.24288
 32
        0.00000
 13
      -33.87921
 23
       28.24288
 33
       16.83666
999
Fixed Shading:FACE_WALL_1351805814
  0
3DFACE
  8
Fixed Shading
 62
  5
 10
       49.14228
 20
      -52.75581
 30
       12.66489
 11
       49.14228
 21
      -52.75581
 31
        0.00000
 12
       31.41186
 22
       -0.41541
 32
        0.00000
 13
       31.41186
 23
       -0.41541
 33
       12.66489
999
Fixed Shading:Mir-FACE_WALL_1351805814
  0
3DFACE
  8
Fixed Shading
 62
  5
 10
       31.41186
 20
       -0.41541
 30
       12.66489
 11
       31.41186
 21
       -0.41541
 31
        0.00000
 12
       49.14228
 22
      -52.75581
 32
        0.00000
 13
       49.14228
 23
      -52.75581
 33
       12.66489
999
Fixed Shading:FACE_WALL_1570814285
  0
3DFACE
  8
Fixed Shading
 62
  5
 10
       31.41186
 20
       -0.41541
 30
       12.66489
 11
       31.41186
 21
       -0.41541
 31
        0.00000
 12
       43.75148
 22
        3.76466
 32
        0.00000
 13
       43.75148
 23
        3.76466
 33
       12.66489
999
Fixed Shading:Mir-FACE_WALL_1570814285
  0
3DFACE
  8
Fixed Shading
 62
  5
 10
       43.75148
 20
        3.76466
 30
       12.66489
 11
       43.75148
 21
        3.76466
 31
        0.00000
 12
       31.41186
 22
       -0.41541
 32
        0.00000
 13
       31.41186
 23
       -0.41541
 33
       12.66489
999
Fixed Shading:FACE_WALL_1659215424
  0
3DFACE
  8
Fixed Shading
 62
  5
 10
       61.48190
 20
      -48.57574
 30
       12.66489
 11
       61.48190
 21
      -48.57574
 31
        0.00000
 12
       49.14228
 22
      -52.75581
 32
        0.00000
 13
       49.14228
 23
      -52.75581
 33
       12.66489
999
Fixed Shading:Mir-FACE_WALL_1659215424
  0
3DFACE
  8
Fixed Shading
 62
  5
 10
       49.14228
 20
      -52.75581
 30
       12.66489
 11
       49.14228
 21
      -52.75581
 31
        0.00000
 12
       61.48190
 22
      -48.57574
 32
        0.00000
 13
       61.48190
 23
      -48.57574
 33
       12.66489
999
Fixed Shading:FACE_WALL_1358474873
  0
3DFACE
  8
Fixed Shading
 62
  5
 10
       76.87605
 20
       32.18689
 30
       24.84804
 11
       76.87605
 21
       32.18689
 31
        0.00000
 12
       83.58371
 22
       12.23420
 32
        0.00000
 13
       83.58371
 23
       12.23420
 33
       24.84804
999
Fixed Shading:Mir-FACE_WALL_1358474873
  0
3DFACE
  8
Fixed Shading
 62
  5
 10
       83.58371
 20
       12.23420
 30
       24.84804
 11
       83.58371
 21
       12.23420
 31
        0.00000
 12
       76.87605
 22
       32.18689
 32
        0.00000
 13
       76.87605
 23
       32.18689
 33
       24.84804
999
Fixed Shading:FACE_WALL_1988539254
  0
3DFACE
  8
Fixed Shading
 62
  5
 10
       47.29890
 20
        0.03608
 30
       24.84804
 11
       47.29890
 21
        0.03608
 31
        0.00000
 12
       40.75317
 22
       19.50664
 32
        0.00000
 13
       40.75317
 23
       19.50664
 33
       24.84804
999
Fixed Shading:Mir-FACE_WALL_1988539254
  0
3DFACE
  8
Fixed Shading
 62
  5
 10
       40.75317
 20
       19.50664
 30
       24.84804
 11
       40.75317
 21
       19.50664
 31
        0.00000
 12
       47.29890
 22
        0.03608
 32
        0.00000
 13
       47.29890
 23
        0.03608
 33
       24.84804
999
Fixed Shading:FACE_WALL_91243717
  0
3DFACE
  8
Fixed Shading
 62
  5
 10
       40.75317
 20
       19.50664
 30
       24.84804
 11
       40.75317
 21
       19.50664
 31
        0.00000
 12
       76.87605
 22
       32.18689
 32
        0.00000
 13
       76.87605
 23
       32.18689
 33
       24.84804
999
Fixed Shading:Mir-FACE_WALL_91243717
  0
3DFACE
  8
Fixed Shading
 62
  5
 10
       76.87605
 20
       32.18689
 30
       24.84804
 11
       76.87605
 21
       32.18689
 31
        0.00000
 12
       40.75317
 22
       19.50664
 32
        0.00000
 13
       40.75317
 23
       19.50664
 33
       24.84804
999
Fixed Shading:FACE_WALL_229827661
  0
3DFACE
  8
Fixed Shading
 62
  5
 10
       83.58371
 20
       12.23420
 30
       24.84804
 11
       83.58371
 21
       12.23420
 31
        0.00000
 12
       47.29890
 22
        0.03608
 32
        0.00000
 13
       47.29890
 23
        0.03608
 33
       24.84804
999
Fixed Shading:Mir-FACE_WALL_229827661
  0
3DFACE
  8
Fixed Shading
 62
  5
 10
       47.29890
 20
        0.03608
 30
       24.84804
 11
       47.29890
 21
        0.03608
 31
        0.00000
 12
       83.58371
 22
       12.23420
 32
        0.00000
 13
       83.58371
 23
       12.23420
 33
       24.84804
999
Fixed Shading:FACE_WALL_1537901121
  0
3DFACE
  8
Fixed Shading
 62
  5
 10
       31.69073
 20
        8.51510
 30
        3.99242
 11
       31.69073
 21
        8.51510
 31
        0.00000
 12
       43.11260
 22
       12.41454
 32
        0.00000
 13
       43.11260
 23
       12.41454
 33
        3.99242
999
Fixed Shading:Mir-FACE_WALL_1537901121
  0
3DFACE
  8
Fixed Shading
 62
  5
 10
       43.11260
 20
       12.41454
 30
        3.99242
 11
       43.11260
 21
       12.41454
 31
        0.00000
 12
       31.69073
 22
        8.51510
 32
        0.00000
 13
       31.69073
 23
        8.51510
 33
        3.99242
999
Fixed Shading:FACE_WALL_390965355
  0
3DFACE
  8
Fixed Shading
 62
  5
 10
       40.75317
 20
       19.50664
 30
        3.99242
 11
       40.75317
 21
       19.50664
 31
        0.00000
 12
       29.23964
 22
       15.82979
 32
        0.00000
 13
       29.23964
 23
       15.82979
 33
        3.99242
999
Fixed Shading:Mir-FACE_WALL_390965355
  0
3DFACE
  8
Fixed Shading
 62
  5
 10
       29.23964
 20
       15.82979
 30
        3.99242
 11
       29.23964
 21
       15.82979
 31
        0.00000
 12
       40.75317
 22
       19.50664
 32
        0.00000
 13
       40.75317
 23
       19.50664
 33
        3.99242
999
Fixed Shading:FACE_WALL_1802245312
  0
3DFACE
  8
Fixed Shading
 62
  5
 10
       29.23964
 20
       15.82979
 30
        3.99242
 11
       29.23964
 21
       15.82979
 31
        0.00000
 12
       31.69073
 22
        8.51510
 32
        0.00000
 13
       31.69073
 23
        8.51510
 33
        3.99242
999
Fixed Shading:Mir-FACE_WALL_1802245312
  0
3DFACE
  8
Fixed Shading
 62
  5
 10
       31.69073
 20
        8.51510
 30
        3.99242
 11
       31.69073
 21
        8.51510
 31
        0.00000
 12
       29.23964
 22
       15.82979
 32
        0.00000
 13
       29.23964
 23
       15.82979
 33
        3.99242
999
Fixed Shading:FACE_WALL_80117849
  0
3DFACE
  8
Fixed Shading
 62
  5
 10
       43.11260
 20
       12.41454
 30
        3.99242
 11
       43.11260
 21
       12.41454
 31
        0.00000
 12
       40.75317
 22
       19.50664
 32
        0.00000
 13
       40.75317
 23
       19.50664
 33
        3.99242
999
Fixed Shading:Mir-FACE_WALL_80117849
  0
3DFACE
  8
Fixed Shading
 62
  5
 10
       40.75317
 20
       19.50664
 30
        3.99242
 11
       40.75317
 21
       19.50664
 31
        0.00000
 12
       43.11260
 22
       12.41454
 32
        0.00000
 13
       43.11260
 23
       12.41454
 33
        3.99242
999
Fixed Shading:FACE_WALL_68441474
  0
3DFACE
  8
Fixed Shading
 62
  5
 10
       69.31799
 20
     -169.62743
 30
       30.96443
 11
       69.31799
 21
     -169.62743
 31
        0.00000
 12
       53.41070
 22
     -176.87279
 32
        0.00000
 13
       53.41070
 23
     -176.87279
 33
       30.96443
999
Fixed Shading:Mir-FACE_WALL_68441474
  0
3DFACE
  8
Fixed Shading
 62
  5
 10
       53.41070
 20
     -176.87279
 30
       30.96443
 11
       53.41070
 21
     -176.87279
 31
        0.00000
 12
       69.31799
 22
     -169.62743
 32
        0.00000
 13
       69.31799
 23
     -169.62743
 33
       30.96443
999
Fixed Shading:FACE_WALL_1392102373
  0
3DFACE
  8
Fixed Shading
 62
  5
 10
       53.41070
 20
     -176.87279
 30
       30.96443
 11
       53.41070
 21
     -176.87279
 31
        0.00000
 12
       29.33486
 22
     -124.01400
 32
        0.00000
 13
       29.33486
 23
     -124.01400
 33
       30.96443
999
Fixed Shading:Mir-FACE_WALL_1392102373
  0
3DFACE
  8
Fixed Shading
 62
  5
 10
       29.33486
 20
     -124.01400
 30
       30.96443
 11
       29.33486
 21
     -124.01400
 31
        0.00000
 12
       53.41070
 22
     -176.87279
 32
        0.00000
 13
       53.41070
 23
     -176.87279
 33
       30.96443
999
Fixed Shading:FACE_WALL_230248946
  0
3DFACE
  8
Fixed Shading
 62
  5
 10
       29.33486
 20
     -124.01400
 30
       30.96443
 11
       29.33486
 21
     -124.01400
 31
        0.00000
 12
       45.24215
 22
     -116.76864
 32
        0.00000
 13
       45.24215
 23
     -116.76864
 33
       30.96443
999
Fixed Shading:Mir-FACE_WALL_230248946
  0
3DFACE
  8
Fixed Shading
 62
  5
 10
       45.24215
 20
     -116.76864
 30
       30.96443
 11
       45.24215
 21
     -116.76864
 31
        0.00000
 12
       29.33486
 22
     -124.01400
 32
        0.00000
 13
       29.33486
 23
     -124.01400
 33
       30.96443
999
Fixed Shading:FACE_WALL_28503528
  0
3DFACE
  8
Fixed Shading
 62
  5
 10
       45.24215
 20
     -116.76864
 30
       30.96443
 11
       45.24215
 21
     -116.76864
 31
        0.00000
 12
       69.31799
 22
     -169.62743
 32
        0.00000
 13
       69.31799
 23
     -169.62743
 33
       30.96443
999
Fixed Shading:Mir-FACE_WALL_28503528
  0
3DFACE
  8
Fixed Shading
 62
  5
 10
       69.31799
 20
     -169.62743
 30
       30.96443
 11
       69.31799
 21
     -169.62743
 31
        0.00000
 12
       45.24215
 22
     -116.76864
 32
        0.00000
 13
       45.24215
 23
     -116.76864
 33
       30.96443
999
Fixed Shading:FACE_WALL_169941815
  0
3DFACE
  8
Fixed Shading
 62
  5
 10
       19.01346
 20
     -111.73280
 30
       15.95359
 11
       19.01346
 21
     -111.73280
 31
        0.00000
 12
       31.79495
 22
     -140.05330
 32
        0.00000
 13
       31.79495
 23
     -140.05330
 33
       15.95359
999
Fixed Shading:Mir-FACE_WALL_169941815
  0
3DFACE
  8
Fixed Shading
 62
  5
 10
       31.79495
 20
     -140.05330
 30
       15.95359
 11
       31.79495
 21
     -140.05330
 31
        0.00000
 12
       19.01346
 22
     -111.73280
 32
        0.00000
 13
       19.01346
 23
     -111.73280
 33
       15.95359
999
Fixed Shading:FACE_WALL_58834195
  0
3DFACE
  8
Fixed Shading
 62
  5
 10
       31.79495
 20
     -140.05330
 30
       15.95359
 11
       31.79495
 21
     -140.05330
 31
        0.00000
 12
       16.96314
 22
     -146.74730
 32
        0.00000
 13
       16.96314
 23
     -146.74730
 33
       15.95359
999
Fixed Shading:Mir-FACE_WALL_58834195
  0
3DFACE
  8
Fixed Shading
 62
  5
 10
       16.96314
 20
     -146.74730
 30
       15.95359
 11
       16.96314
 21
     -146.74730
 31
        0.00000
 12
       31.79495
 22
     -140.05330
 32
        0.00000
 13
       31.79495
 23
     -140.05330
 33
       15.95359
999
Fixed Shading:FACE_WALL_983837745
  0
3DFACE
  8
Fixed Shading
 62
  5
 10
       16.96314
 20
     -146.74730
 30
       15.95359
 11
       16.96314
 21
     -146.74730
 31
        0.00000
 12
        4.18134
 22
     -118.42675
 32
        0.00000
 13
        4.18134
 23
     -118.42675
 33
       15.95359
999
Fixed Shading:Mir-FACE_WALL_983837745
  0
3DFACE
  8
Fixed Shading
 62
  5
 10
        4.18134
 20
     -118.42675
 30
       15.95359
 11
        4.18134
 21
     -118.42675
 31
        0.00000
 12
       16.96314
 22
     -146.74730
 32
        0.00000
 13
       16.96314
 23
     -146.74730
 33
       15.95359
999
Fixed Shading:FACE_WALL_1884381962
  0
3DFACE
  8
Fixed Shading
 62
  5
 10
        4.18134
 20
     -118.42675
 30
       15.95359
 11
        4.18134
 21
     -118.42675
 31
        0.00000
 12
       19.01346
 22
     -111.73280
 32
        0.00000
 13
       19.01346
 23
     -111.73280
 33
       15.95359
999
Fixed Shading:Mir-FACE_WALL_1884381962
  0
3DFACE
  8
Fixed Shading
 62
  5
 10
       19.01346
 20
     -111.73280
 30
       15.95359
 11
       19.01346
 21
     -111.73280
 31
        0.00000
 12
        4.18134
 22
     -118.42675
 32
        0.00000
 13
        4.18134
 23
     -118.42675
 33
       15.95359
999
Fixed Shading:FACE_WALL_1866293025
  0
3DFACE
  8
Fixed Shading
 62
  5
 10
      -12.38385
 20
      -51.89962
 30
       17.09608
 11
      -12.38385
 21
      -51.89962
 31
        0.00000
 12
      -16.26576
 22
      -53.20526
 32
        0.00000
 13
      -16.26576
 23
      -53.20526
 33
       17.09608
999
Fixed Shading:Mir-FACE_WALL_1866293025
  0
3DFACE
  8
Fixed Shading
 62
  5
 10
      -16.26576
 20
      -53.20526
 30
       17.09608
 11
      -16.26576
 21
      -53.20526
 31
        0.00000
 12
      -12.38385
 22
      -51.89962
 32
        0.00000
 13
      -12.38385
 23
      -51.89962
 33
       17.09608
999
Fixed Shading:FACE_WALL_640723093
  0
3DFACE
  8
Fixed Shading
 62
  5
 10
      -17.95465
 20
      -48.22035
 30
       17.09608
 11
      -17.95465
 21
      -48.22035
 31
        0.00000
 12
      -22.29513
 22
      -49.69089
 32
        0.00000
 13
      -22.29513
 23
      -49.69089
 33
       17.09608
999
Fixed Shading:Mir-FACE_WALL_640723093
  0
3DFACE
  8
Fixed Shading
 62
  5
 10
      -22.29513
 20
      -49.69089
 30
       17.09608
 11
      -22.29513
 21
      -49.69089
 31
        0.00000
 12
      -17.95465
 22
      -48.22035
 32
        0.00000
 13
      -17.95465
 23
      -48.22035
 33
       17.09608
999
Fixed Shading:FACE_WALL_1150017993
  0
3DFACE
  8
Fixed Shading
 62
  5
 10
      -14.08067
 20
      -46.89107
 30
       17.09608
 11
      -14.08067
 21
      -46.89107
 31
        0.00000
 12
      -12.38385
 22
      -51.89962
 32
        0.00000
 13
      -12.38385
 23
      -51.89962
 33
       17.09608
999
Fixed Shading:Mir-FACE_WALL_1150017993
  0
3DFACE
  8
Fixed Shading
 62
  5
 10
      -12.38385
 20
      -51.89962
 30
       17.09608
 11
      -12.38385
 21
      -51.89962
 31
        0.00000
 12
      -14.08067
 22
      -46.89107
 32
        0.00000
 13
      -14.08067
 23
      -46.89107
 33
       17.09608
999
Fixed Shading:FACE_WALL_999585351
  0
3DFACE
  8
Fixed Shading
 62
  5
 10
      -22.06247
 20
       -4.14684
 30
       17.09608
 11
      -22.06247
 21
       -4.14684
 31
        0.00000
 12
       -8.33865
 22
      -44.94572
 32
        0.00000
 13
       -8.33865
 23
      -44.94572
 33
       17.09608
999
Fixed Shading:Mir-FACE_WALL_999585351
  0
3DFACE
  8
Fixed Shading
 62
  5
 10
       -8.33865
 20
      -44.94572
 30
       17.09608
 11
       -8.33865
 21
      -44.94572
 31
        0.00000
 12
      -22.06247
 22
       -4.14684
 32
        0.00000
 13
      -22.06247
 23
       -4.14684
 33
       17.09608
999
Fixed Shading:FACE_WALL_266423776
  0
3DFACE
  8
Fixed Shading
 62
  5
 10
      -16.26576
 20
      -53.20526
 30
       17.09608
 11
      -16.26576
 21
      -53.20526
 31
        0.00000
 12
      -17.95465
 22
      -48.22035
 32
        0.00000
 13
      -17.95465
 23
      -48.22035
 33
       17.09608
999
Fixed Shading:Mir-FACE_WALL_266423776
  0
3DFACE
  8
Fixed Shading
 62
  5
 10
      -17.95465
 20
      -48.22035
 30
       17.09608
 11
      -17.95465
 21
      -48.22035
 31
        0.00000
 12
      -16.26576
 22
      -53.20526
 32
        0.00000
 13
      -16.26576
 23
      -53.20526
 33
       17.09608
999
Fixed Shading:FACE_WALL_280999237
  0
3DFACE
  8
Fixed Shading
 62
  5
 10
       -8.33865
 20
      -44.94572
 30
       17.09608
 11
       -8.33865
 21
      -44.94572
 31
        0.00000
 12
      -14.08067
 22
      -46.89107
 32
        0.00000
 13
      -14.08067
 23
      -46.89107
 33
       17.09608
999
Fixed Shading:Mir-FACE_WALL_280999237
  0
3DFACE
  8
Fixed Shading
 62
  5
 10
      -14.08067
 20
      -46.89107
 30
       17.09608
 11
      -14.08067
 21
      -46.89107
 31
        0.00000
 12
       -8.33865
 22
      -44.94572
 32
        0.00000
 13
       -8.33865
 23
      -44.94572
 33
       17.09608
999
Fixed Shading:FACE_WALL_437636506
  0
3DFACE
  8
Fixed Shading
 62
  5
 10
      -22.29513
 20
      -49.69089
 30
       17.09608
 11
      -22.29513
 21
      -49.69089
 31
        0.00000
 12
      -35.84181
 22
       -8.80370
 32
        0.00000
 13
      -35.84181
 23
       -8.80370
 33
       17.09608
999
Fixed Shading:Mir-FACE_WALL_437636506
  0
3DFACE
  8
Fixed Shading
 62
  5
 10
      -35.84181
 20
       -8.80370
 30
       17.09608
 11
      -35.84181
 21
       -8.80370
 31
        0.00000
 12
      -22.29513
 22
      -49.69089
 32
        0.00000
 13
      -22.29513
 23
      -49.69089
 33
       17.09608
999
Fixed Shading:FACE_WALL_225265367
  0
3DFACE
  8
Fixed Shading
 62
  5
 10
      -23.38244
 20
       -4.59294
 30
       17.09608
 11
      -23.38244
 21
       -4.59294
 31
        0.00000
 12
      -22.06247
 22
       -4.14684
 32
        0.00000
 13
      -22.06247
 23
       -4.14684
 33
       17.09608
999
Fixed Shading:Mir-FACE_WALL_225265367
  0
3DFACE
  8
Fixed Shading
 62
  5
 10
      -22.06247
 20
       -4.14684
 30
       17.09608
 11
      -22.06247
 21
       -4.14684
 31
        0.00000
 12
      -23.38244
 22
       -4.59294
 32
        0.00000
 13
      -23.38244
 23
       -4.59294
 33
       17.09608
999
Fixed Shading:FACE_WALL_21353508
  0
3DFACE
  8
Fixed Shading
 62
  5
 10
      -23.38244
 20
       -4.59294
 30
       21.93494
 11
      -23.38244
 21
       -4.59294
 31
        0.00000
 12
      -35.84181
 22
       -8.80373
 32
        0.00000
 13
      -35.84181
 23
       -8.80373
 33
       21.93494
999
Fixed Shading:Mir-FACE_WALL_21353508
  0
3DFACE
  8
Fixed Shading
 62
  5
 10
      -35.84181
 20
       -8.80373
 30
       21.93494
 11
      -35.84181
 21
       -8.80373
 31
        0.00000
 12
      -23.38244
 22
       -4.59294
 32
        0.00000
 13
      -23.38244
 23
       -4.59294
 33
       21.93494
999
Fixed Shading:FACE_WALL_258639907
  0
3DFACE
  8
Fixed Shading
 62
  5
 10
      -35.84181
 20
       -8.80373
 30
       21.93494
 11
      -35.84181
 21
       -8.80373
 31
        0.00000
 12
      -39.70251
 22
        2.61954
 32
        0.00000
 13
      -39.70251
 23
        2.61954
 33
       21.93494
999
Fixed Shading:Mir-FACE_WALL_258639907
  0
3DFACE
  8
Fixed Shading
 62
  5
 10
      -39.70251
 20
        2.61954
 30
       21.93494
 11
      -39.70251
 21
        2.61954
 31
        0.00000
 12
      -35.84181
 22
       -8.80373
 32
        0.00000
 13
      -35.84181
 23
       -8.80373
 33
       21.93494
999
Fixed Shading:FACE_WALL_454015421
  0
3DFACE
  8
Fixed Shading
 62
  5
 10
      -27.24321
 20
        6.83029
 30
       21.93494
 11
      -27.24321
 21
        6.83029
 31
        0.00000
 12
      -23.38244
 22
       -4.59294
 32
        0.00000
 13
      -23.38244
 23
       -4.59294
 33
       21.93494
999
Fixed Shading:Mir-FACE_WALL_454015421
  0
3DFACE
  8
Fixed Shading
 62
  5
 10
      -23.38244
 20
       -4.59294
 30
       21.93494
 11
      -23.38244
 21
       -4.59294
 31
        0.00000
 12
      -27.24321
 22
        6.83029
 32
        0.00000
 13
      -27.24321
 23
        6.83029
 33
       21.93494
999
Fixed Shading:FACE_WALL_627782956
  0
3DFACE
  8
Fixed Shading
 62
  5
 10
      -39.70251
 20
        2.61954
 30
       21.93494
 11
      -39.70251
 21
        2.61954
 31
        0.00000
 12
      -27.24321
 22
        6.83029
 32
        0.00000
 13
      -27.24321
 23
        6.83029
 33
       21.93494
999
Fixed Shading:Mir-FACE_WALL_627782956
  0
3DFACE
  8
Fixed Shading
 62
  5
 10
      -27.24321
 20
        6.83029
 30
       21.93494
 11
      -27.24321
 21
        6.83029
 31
        0.00000
 12
      -39.70251
 22
        2.61954
 32
        0.00000
 13
      -39.70251
 23
        2.61954
 33
       21.93494
999
Fixed Shading:FACE_WALL_560983781
  0
3DFACE
  8
Fixed Shading
 62
  5
 10
      -71.50231
 20
      -71.78420
 30
       31.47838
 11
      -71.50231
 21
      -71.78420
 31
        0.00000
 12
        6.28987
 22
      -45.61862
 32
        0.00000
 13
        6.28987
 23
      -45.61862
 33
       31.47838
999
Fixed Shading:Mir-FACE_WALL_560983781
  0
3DFACE
  8
Fixed Shading
 62
  5
 10
        6.28987
 20
      -45.61862
 30
       31.47838
 11
        6.28987
 21
      -45.61862
 31
        0.00000
 12
      -71.50231
 22
      -71.78420
 32
        0.00000
 13
      -71.50231
 23
      -71.78420
 33
       31.47838
999
Fixed Shading:FACE_WALL_1001196937
  0
3DFACE
  8
Fixed Shading
 62
  5
 10
        6.28987
 20
      -45.61862
 30
       31.47838
 11
        6.28987
 21
      -45.61862
 31
        0.00000
 12
       11.85874
 22
      -62.17512
 32
        0.00000
 13
       11.85874
 23
      -62.17512
 33
       31.47838
999
Fixed Shading:Mir-FACE_WALL_1001196937
  0
3DFACE
  8
Fixed Shading
 62
  5
 10
       11.85874
 20
      -62.17512
 30
       31.47838
 11
       11.85874
 21
      -62.17512
 31
        0.00000
 12
        6.28987
 22
      -45.61862
 32
        0.00000
 13
        6.28987
 23
      -45.61862
 33
       31.47838
999
Fixed Shading:FACE_WALL_1582545914
  0
3DFACE
  8
Fixed Shading
 62
  5
 10
       11.85874
 20
      -62.17512
 30
       31.47838
 11
       11.85874
 21
      -62.17512
 31
        0.00000
 12
      -65.93345
 22
      -88.34071
 32
        0.00000
 13
      -65.93345
 23
      -88.34071
 33
       31.47838
999
Fixed Shading:Mir-FACE_WALL_1582545914
  0
3DFACE
  8
Fixed Shading
 62
  5
 10
      -65.93345
 20
      -88.34071
 30
       31.47838
 11
      -65.93345
 21
      -88.34071
 31
        0.00000
 12
       11.85874
 22
      -62.17512
 32
        0.00000
 13
       11.85874
 23
      -62.17512
 33
       31.47838
999
Fixed Shading:FACE_WALL_1264208503
  0
3DFACE
  8
Fixed Shading
 62
  5
 10
      -65.93345
 20
      -88.34071
 30
       31.47838
 11
      -65.93345
 21
      -88.34071
 31
        0.00000
 12
      -71.50231
 22
      -71.78420
 32
        0.00000
 13
      -71.50231
 23
      -71.78420
 33
       31.47838
999
Fixed Shading:Mir-FACE_WALL_1264208503
  0
3DFACE
  8
Fixed Shading
 62
  5
 10
      -71.50231
 20
      -71.78420
 30
       31.47838
 11
      -71.50231
 21
      -71.78420
 31
        0.00000
 12
      -65.93345
 22
      -88.34071
 32
        0.00000
 13
      -65.93345
 23
      -88.34071
 33
       31.47838
999
L0_ZONE1:FACE_WALL_642616656
  0
3DFACE
  8
L0_ZONE1
 62
  3
 10
        3.18959
 20
       -9.47768
 30
        3.00000
 11
        3.18959
 21
       -9.47768
 31
        0.00000
 12
       13.26076
 22
      -39.40357
 32
        0.00000
 13
       13.26076
 23
      -39.40357
 33
        3.00000
999
L0_ZONE1:FACE_WALL_762876629
  0
3DFACE
  8
L0_ZONE1
 62
  3
 10
       22.73845
 20
      -36.21397
 30
        3.00000
 11
       22.73845
 21
      -36.21397
 31
        0.00000
 12
       15.36366
 22
      -14.30022
 32
        0.00000
 13
       15.36366
 23
      -14.30022
 33
        3.00000
999
L0_ZONE1:FACE_WALL_1190131013
  0
3DFACE
  8
L0_ZONE1
 62
  3
 10
       15.36366
 20
      -14.30022
 30
        3.00000
 11
       15.36366
 21
      -14.30022
 31
        0.00000
 12
       13.53826
 22
      -14.91454
 32
        0.00000
 13
       13.53826
 23
      -14.91454
 33
        3.00000
999
L0_ZONE1:FACE_WALL_869247333
  0
3DFACE
  8
L0_ZONE1
 62
  3
 10
       22.73845
 20
      -36.21397
 30
        3.00000
 11
       22.73845
 21
      -36.21397
 31
        0.00000
 12
       13.26076
 22
      -39.40357
 32
        0.00000
 13
       13.26076
 23
      -39.40357
 33
        3.00000
999
L0_ZONE1:FACE_WINDOW_108675190
  0
3DFACE
  8
L0_ZONE1
 62
  4
 10
       22.01205
 20
      -36.45844
 30
        2.77007
 11
       22.01205
 21
      -36.45844
 31
        0.22993
 12
       13.98717
 22
      -39.15911
 32
        0.22993
 13
       13.98717
 23
      -39.15911
 33
        2.77007
999
L0_ZONE1:FACE_WALL_1142818380
  0
3DFACE
  8
L0_ZONE1
 62
  3
 10
       13.53826
 20
      -14.91454
 30
        3.00000
 11
       13.53826
 21
      -14.91454
 31
        0.00000
 12
       10.84187
 22
       -6.90241
 32
        0.00000
 13
       10.84187
 23
       -6.90241
 33
        3.00000
999
L0_ZONE1:FACE_WINDOW_254773892
  0
3DFACE
  8
L0_ZONE1
 62
  4
 10
       13.33160
 20
      -14.30046
 30
        2.77007
 11
       13.33160
 21
      -14.30046
 31
        0.22993
 12
       11.04853
 22
       -7.51648
 32
        0.22993
 13
       11.04853
 23
       -7.51648
 33
        2.77007
999
L0_ZONE1:iz-FACE_WALL_330144527
  0
3DFACE
  8
L0_ZONE1
 62
  3
 10
        3.18959
 20
       -9.47768
 30
        3.00000
 11
        3.18959
 21
       -9.47768
 31
        0.00000
 12
       10.84187
 22
       -6.90241
 32
        0.00000
 13
       10.84187
 23
       -6.90241
 33
        3.00000
999
L0_ZONE1:FACE_FLOOR_851366397
  0
3DFACE
  8
L0_ZONE1
 62
  2
 10
       13.26076
 20
      -39.40357
 30
        0.00000
 11
       15.36366
 21
      -14.30022
 31
        0.00000
 12
       22.73845
 22
      -36.21397
 32
        0.00000
 13
       22.73845
 23
      -36.21397
 33
        0.00000
999
L0_ZONE1:FACE_FLOOR_231494418
  0
3DFACE
  8
L0_ZONE1
 62
  2
 10
       15.36366
 20
      -14.30022
 30
        0.00000
 11
       13.26076
 21
      -39.40357
 31
        0.00000
 12
       13.53826
 22
      -14.91454
 32
        0.00000
 13
       13.53826
 23
      -14.91454
 33
        0.00000
999
L0_ZONE1:FACE_FLOOR_1633798609
  0
3DFACE
  8
L0_ZONE1
 62
  2
 10
       13.53826
 20
      -14.91454
 30
        0.00000
 11
        3.18959
 21
       -9.47768
 31
        0.00000
 12
       10.84187
 22
       -6.90241
 32
        0.00000
 13
       10.84187
 23
       -6.90241
 33
        0.00000
999
L0_ZONE1:FACE_FLOOR_1527310921
  0
3DFACE
  8
L0_ZONE1
 62
  2
 10
        3.18959
 20
       -9.47768
 30
        0.00000
 11
       13.53826
 21
      -14.91454
 31
        0.00000
 12
       13.26076
 22
      -39.40357
 32
        0.00000
 13
       13.26076
 23
      -39.40357
 33
        0.00000
999
L0_ZONE1:iz-FACE_FLOOR_772581038
  0
3DFACE
  8
L0_ZONE1
 62
  8
 10
       13.26076
 20
      -39.40357
 30
        3.00000
 11
       22.73845
 21
      -36.21397
 31
        3.00000
 12
       12.66728
 22
       -6.28809
 32
        3.00000
 13
        3.18959
 23
       -9.47768
 33
        3.00000
999
L0_ZONE2:FACE_WALL_1983406566
  0
3DFACE
  8
L0_ZONE2
 62
  3
 10
        3.18959
 20
       -9.47768
 30
        0.00000
 11
       -7.99886
 21
       23.76814
 31
        0.00000
 12
        3.18959
 22
       -9.47768
 32
        3.00000
 13
        3.18959
 23
       -9.47768
 33
        3.00000
999
L0_ZONE2:FACE_WALL_1872986028
  0
3DFACE
  8
L0_ZONE2
 62
  3
 10
        0.00000
 20
       -0.00000
 30
        3.00000
 11
        3.18959
 21
       -9.47768
 31
        3.00000
 12
       -7.99886
 22
       23.76814
 32
        0.00000
 13
       -7.99886
 23
       23.76814
 33
        0.00000
999
L0_ZONE2:FACE_WALL_1460874870
  0
3DFACE
  8
L0_ZONE2
 62
  3
 10
       -7.99886
 20
       23.76814
 30
        3.00000
 11
        0.00000
 21
       -0.00000
 31
        3.00000
 12
       -7.99886
 22
       23.76814
 32
        0.00000
 13
       -7.99886
 23
       23.76814
 33
        0.00000
999
L0_ZONE2:FACE_WALL_743403939
  0
3DFACE
  8
L0_ZONE2
 62
  3
 10
       12.66728
 20
       -6.28809
 30
        3.00000
 11
       12.66728
 21
       -6.28809
 31
        0.00000
 12
       10.84187
 22
       -6.90241
 32
        0.00000
 13
       10.84187
 23
       -6.90241
 33
        3.00000
999
L0_ZONE2:FACE_WALL_330144527
  0
3DFACE
  8
L0_ZONE2
 62
  3
 10
       10.84187
 20
       -6.90241
 30
        3.00000
 11
       10.84187
 21
       -6.90241
 31
        0.00000
 12
        3.18959
 22
       -9.47768
 32
        0.00000
 13
        3.18959
 23
       -9.47768
 33
        3.00000
999
L0_ZONE2:FACE_WALL_1788805088
  0
3DFACE
  8
L0_ZONE2
 62
  3
 10
       -7.99886
 20
       23.76814
 30
        3.00000
 11
       -7.99886
 21
       23.76814
 31
        0.00000
 12
       13.28439
 22
       23.72550
 32
        0.00000
 13
       13.28439
 23
       23.72550
 33
        3.00000
999
L0_ZONE2:FACE_WINDOW_1823539663
  0
3DFACE
  8
L0_ZONE2
 62
  4
 10
       -6.36764
 20
       23.76487
 30
        2.77007
 11
       -6.36764
 21
       23.76487
 31
        0.22993
 12
       11.65317
 22
       23.72877
 32
        0.22993
 13
       11.65317
 23
       23.72877
 33
        2.77007
999
L0_ZONE2:FACE_WALL_1491989704
  0
3DFACE
  8
L0_ZONE2
 62
  3
 10
        9.09430
 20
        8.43658
 30
        3.00000
 11
        9.09430
 21
        8.43658
 31
        0.00000
 12
        6.94426
 22
       14.82530
 32
        0.00000
 13
        6.94426
 23
       14.82530
 33
        3.00000
999
L0_ZONE2:FACE_WINDOW_1851892756
  0
3DFACE
  8
L0_ZONE2
 62
  4
 10
        8.92951
 20
        8.92623
 30
        2.77007
 11
        8.92951
 21
        8.92623
 31
        0.22993
 12
        7.10905
 22
       14.33565
 32
        0.22993
 13
        7.10905
 23
       14.33565
 33
        2.77007
999
L0_ZONE2:FACE_WALL_1281054121
  0
3DFACE
  8
L0_ZONE2
 62
  3
 10
        2.13247
 20
        6.09366
 30
        3.00000
 11
        2.13247
 21
        6.09366
 31
        0.00000
 12
        9.09430
 22
        8.43658
 32
        0.00000
 13
        9.09430
 23
        8.43658
 33
        3.00000
999
L0_ZONE2:FACE_WINDOW_5566825
  0
3DFACE
  8
L0_ZONE2
 62
  4
 10
        2.66605
 20
        6.27323
 30
        2.77007
 11
        2.66605
 21
        6.27323
 31
        0.22993
 12
        8.56072
 22
        8.25701
 32
        0.22993
 13
        8.56072
 23
        8.25701
 33
        2.77007
999
L0_ZONE2:FACE_WALL_1219830954
  0
3DFACE
  8
L0_ZONE2
 62
  3
 10
       -0.01757
 20
       12.48238
 30
        3.00000
 11
       -0.01757
 21
       12.48238
 31
        0.00000
 12
        2.13247
 22
        6.09366
 32
        0.00000
 13
        2.13247
 23
        6.09366
 33
        3.00000
999
L0_ZONE2:FACE_WINDOW_1819949616
  0
3DFACE
  8
L0_ZONE2
 62
  4
 10
        0.14721
 20
       11.99273
 30
        2.77007
 11
        0.14721
 21
       11.99273
 31
        0.22993
 12
        1.96768
 22
        6.58332
 32
        0.22993
 13
        1.96768
 23
        6.58332
 33
        2.77007
999
L0_ZONE2:FACE_WALL_1283611891
  0
3DFACE
  8
L0_ZONE2
 62
  3
 10
        6.94426
 20
       14.82530
 30
        3.00000
 11
        6.94426
 21
       14.82530
 31
        0.00000
 12
       -0.01757
 22
       12.48238
 32
        0.00000
 13
       -0.01757
 23
       12.48238
 33
        3.00000
999
L0_ZONE2:FACE_WINDOW_44334275
  0
3DFACE
  8
L0_ZONE2
 62
  4
 10
        6.41068
 20
       14.64573
 30
        2.77007
 11
        6.41068
 21
       14.64573
 31
        0.22993
 12
        0.51601
 22
       12.66195
 32
        0.22993
 13
        0.51601
 23
       12.66195
 33
        2.77007
999
L0_ZONE2:FACE_WALL_1909514618
  0
3DFACE
  8
L0_ZONE2
 62
  3
 10
       12.66728
 20
       -6.28809
 30
        3.00000
 11
       12.66728
 21
       -6.28809
 31
        0.00000
 12
       13.28439
 22
       23.72550
 32
        0.00000
 13
       13.28439
 23
       23.72550
 33
        3.00000
999
L0_ZONE2:FACE_WINDOW_1216563958
  0
3DFACE
  8
L0_ZONE2
 62
  4
 10
       12.71458
 20
       -3.98775
 30
        2.77007
 11
       12.71458
 21
       -3.98775
 31
        0.22993
 12
       13.23710
 22
       21.42516
 32
        0.22993
 13
       13.23710
 23
       21.42516
 33
        2.77007
999
L0_ZONE2:FACE_FLOOR_2049894373
  0
3DFACE
  8
L0_ZONE2
 62
  2
 10
       -7.99886
 20
       23.76814
 30
        0.00000
 11
        2.13247
 21
        6.09366
 31
        0.00000
 12
        3.18959
 22
       -9.47768
 32
        0.00000
 13
        3.18959
 23
       -9.47768
 33
        0.00000
999
L0_ZONE2:FACE_FLOOR_494578190
  0
3DFACE
  8
L0_ZONE2
 62
  2
 10
       10.84187
 20
       -6.90241
 30
        0.00000
 11
        3.18959
 21
       -9.47768
 31
        0.00000
 12
        2.13247
 22
        6.09366
 32
        0.00000
 13
        2.13247
 23
        6.09366
 33
        0.00000
999
L0_ZONE2:FACE_FLOOR_1613925440
  0
3DFACE
  8
L0_ZONE2
 62
  2
 10
        9.09430
 20
        8.43658
 30
        0.00000
 11
       10.84187
 21
       -6.90241
 31
        0.00000
 12
        2.13247
 22
        6.09366
 32
        0.00000
 13
        2.13247
 23
        6.09366
 33
        0.00000
999
L0_ZONE2:FACE_FLOOR_378924823
  0
3DFACE
  8
L0_ZONE2
 62
  2
 10
       12.66728
 20
       -6.28809
 30
        0.00000
 11
       10.84187
 21
       -6.90241
 31
        0.00000
 12
        9.09430
 22
        8.43658
 32
        0.00000
 13
        9.09430
 23
        8.43658
 33
        0.00000
999
L0_ZONE2:FACE_FLOOR_1300486806
  0
3DFACE
  8
L0_ZONE2
 62
  2
 10
       13.28439
 20
       23.72550
 30
        0.00000
 11
       12.66728
 21
       -6.28809
 31
        0.00000
 12
        9.09430
 22
        8.43658
 32
        0.00000
 13
        9.09430
 23
        8.43658
 33
        0.00000
999
L0_ZONE2:FACE_FLOOR_193189276
  0
3DFACE
  8
L0_ZONE2
 62
  2
 10
        6.94426
 20
       14.82530
 30
        0.00000
 11
       13.28439
 21
       23.72550
 31
        0.00000
 12
        9.09430
 22
        8.43658
 32
        0.00000
 13
        9.09430
 23
        8.43658
 33
        0.00000
999
L0_ZONE2:FACE_FLOOR_2084371115
  0
3DFACE
  8
L0_ZONE2
 62
  2
 10
       13.28439
 20
       23.72550
 30
        0.00000
 11
       -0.01757
 21
       12.48238
 31
        0.00000
 12
       -7.99886
 22
       23.76814
 32
        0.00000
 13
       -7.99886
 23
       23.76814
 33
        0.00000
999
L0_ZONE2:FACE_FLOOR_124596294
  0
3DFACE
  8
L0_ZONE2
 62
  2
 10
        2.13247
 20
        6.09366
 30
        0.00000
 11
       -7.99886
 21
       23.76814
 31
        0.00000
 12
       -0.01757
 22
       12.48238
 32
        0.00000
 13
       -0.01757
 23
       12.48238
 33
        0.00000
999
L0_ZONE2:FACE_FLOOR_293357433
  0
3DFACE
  8
L0_ZONE2
 62
  2
 10
        6.94426
 20
       14.82530
 30
        0.00000
 11
       -0.01757
 21
       12.48238
 31
        0.00000
 12
       13.28439
 22
       23.72550
 32
        0.00000
 13
       13.28439
 23
       23.72550
 33
        0.00000
999
L0_ZONE2:FACE_ROOF_2096818063
  0
3DFACE
  8
L0_ZONE2
 62
  8
 10
        9.47768
 20
        3.18959
 30
        3.00000
 11
        2.13247
 21
        6.09366
 31
        3.00000
 12
        0.00000
 22
       -0.00000
 32
        3.00000
 13
        0.00000
 23
       -0.00000
 33
        3.00000
999
L0_ZONE2:FACE_ROOF_1014537571
  0
3DFACE
  8
L0_ZONE2
 62
  8
 10
       -7.99886
 20
       23.76814
 30
        3.00000
 11
        0.00000
 21
       -0.00000
 31
        3.00000
 12
        2.13247
 22
        6.09366
 32
        3.00000
 13
        2.13247
 23
        6.09366
 33
        3.00000
999
L0_ZONE2:FACE_ROOF_312798617
  0
3DFACE
  8
L0_ZONE2
 62
  8
 10
        9.09430
 20
        8.43658
 30
        3.00000
 11
        2.13247
 21
        6.09366
 31
        3.00000
 12
        9.47768
 22
        3.18959
 32
        3.00000
 13
        9.47768
 23
        3.18959
 33
        3.00000
999
L0_ZONE2:FACE_ROOF_166388063
  0
3DFACE
  8
L0_ZONE2
 62
  8
 10
        2.13247
 20
        6.09366
 30
        3.00000
 11
       -0.01757
 21
       12.48238
 31
        3.00000
 12
       -7.99886
 22
       23.76814
 32
        3.00000
 13
       -7.99886
 23
       23.76814
 33
        3.00000
999
L0_ZONE2:FACE_ROOF_460466447
  0
3DFACE
  8
L0_ZONE2
 62
  8
 10
       13.28439
 20
       23.72550
 30
        3.00000
 11
       -7.99886
 21
       23.76814
 31
        3.00000
 12
       -0.01757
 22
       12.48238
 32
        3.00000
 13
       -0.01757
 23
       12.48238
 33
        3.00000
999
L0_ZONE2:FACE_ROOF_1675994588
  0
3DFACE
  8
L0_ZONE2
 62
  8
 10
        6.94426
 20
       14.82530
 30
        3.00000
 11
       13.28439
 21
       23.72550
 31
        3.00000
 12
       -0.01757
 22
       12.48238
 32
        3.00000
 13
       -0.01757
 23
       12.48238
 33
        3.00000
999
L0_ZONE2:FACE_ROOF_2045526464
  0
3DFACE
  8
L0_ZONE2
 62
  8
 10
       12.66728
 20
       -6.28809
 30
        3.00000
 11
       13.28439
 21
       23.72550
 31
        3.00000
 12
        9.47768
 22
        3.18959
 32
        3.00000
 13
        9.47768
 23
        3.18959
 33
        3.00000
999
L0_ZONE2:FACE_ROOF_97575625
  0
3DFACE
  8
L0_ZONE2
 62
  8
 10
        9.09430
 20
        8.43658
 30
        3.00000
 11
        9.47768
 21
        3.18959
 31
        3.00000
 12
       13.28439
 22
       23.72550
 32
        3.00000
 13
       13.28439
 23
       23.72550
 33
        3.00000
999
L0_ZONE2:FACE_ROOF_1423506714
  0
3DFACE
  8
L0_ZONE2
 62
  8
 10
        6.94426
 20
       14.82530
 30
        3.00000
 11
        9.09430
 21
        8.43658
 31
        3.00000
 12
       13.28439
 22
       23.72550
 32
        3.00000
 13
       13.28439
 23
       23.72550
 33
        3.00000
999
L0_ZONE2:iz-FACE_FLOOR_219627569
  0
3DFACE
  8
L0_ZONE2
 62
  8
 10
        9.47768
 20
        3.18959
 30
        3.00000
 11
        0.00000
 21
       -0.00000
 31
        3.00000
 12
        3.18959
 22
       -9.47768
 32
        3.00000
 13
       12.66728
 23
       -6.28809
 33
        3.00000
999
L0_ZONE2:FACE_SHADING_598639019
  0
3DFACE
  8
L0_ZONE2
 62
  6
 10
       12.71458
 20
       -3.98775
 30
        2.77007
 11
       14.71415
 21
       -4.02886
 31
        2.77007
 12
       15.23667
 22
       21.38404
 32
        2.77007
 13
       13.23710
 23
       21.42516
 33
        2.77007
999
L0_ZONE2:Mir-FACE_SHADING_598639019
  0
3DFACE
  8
L0_ZONE2
 62
  6
 10
       13.23710
 20
       21.42516
 30
        2.77007
 11
       15.23667
 21
       21.38404
 31
        2.77007
 12
       14.71415
 22
       -4.02886
 32
        2.77007
 13
       12.71458
 23
       -3.98775
 33
        2.77007
999
L0_ZONE2:FACE_SHADING_365106138
  0
3DFACE
  8
L0_ZONE2
 62
  6
 10
       12.71458
 20
       -3.98775
 30
        2.77007
 11
       12.71458
 21
       -3.98775
 31
        0.22993
 12
       14.71415
 22
       -4.02886
 32
        0.22993
 13
       14.71415
 23
       -4.02886
 33
        2.77007
999
L0_ZONE2:Mir-FACE_SHADING_365106138
  0
3DFACE
  8
L0_ZONE2
 62
  6
 10
       14.71415
 20
       -4.02886
 30
        2.77007
 11
       14.71415
 21
       -4.02886
 31
        0.22993
 12
       12.71458
 22
       -3.98775
 32
        0.22993
 13
       12.71458
 23
       -3.98775
 33
        2.77007
999
L0_ZONE2:FACE_SHADING_978081887
  0
3DFACE
  8
L0_ZONE2
 62
  6
 10
       13.23710
 20
       21.42516
 30
        0.22993
 11
       15.23667
 21
       21.38404
 31
        0.22993
 12
       14.71415
 22
       -4.02886
 32
        0.22993
 13
       12.71458
 23
       -3.98775
 33
        0.22993
999
L0_ZONE2:Mir-FACE_SHADING_978081887
  0
3DFACE
  8
L0_ZONE2
 62
  6
 10
       12.71458
 20
       -3.98775
 30
        0.22993
 11
       14.71415
 21
       -4.02886
 31
        0.22993
 12
       15.23667
 22
       21.38404
 32
        0.22993
 13
       13.23710
 23
       21.42516
 33
        0.22993
999
L0_ZONE2:FACE_SHADING_1782440671
  0
3DFACE
  8
L0_ZONE2
 62
  6
 10
       15.23667
 20
       21.38404
 30
        2.77007
 11
       15.23667
 21
       21.38404
 31
        0.22993
 12
       13.23710
 22
       21.42516
 32
        0.22993
 13
       13.23710
 23
       21.42516
 33
        2.77007
999
L0_ZONE2:Mir-FACE_SHADING_1782440671
  0
3DFACE
  8
L0_ZONE2
 62
  6
 10
       13.23710
 20
       21.42516
 30
        2.77007
 11
       13.23710
 21
       21.42516
 31
        0.22993
 12
       15.23667
 22
       21.38404
 32
        0.22993
 13
       15.23667
 23
       21.38404
 33
        2.77007
999
L1_ZONE1:FACE_WALL_83481847
  0
3DFACE
  8
L1_ZONE1
 62
  3
 10
        3.18959
 20
       -9.47768
 30
        6.00000
 11
        3.18959
 21
       -9.47768
 31
        3.00000
 12
       13.26076
 22
      -39.40357
 32
        3.00000
 13
       13.26076
 23
      -39.40357
 33
        6.00000
999
L1_ZONE1:FACE_WALL_1083375904
  0
3DFACE
  8
L1_ZONE1
 62
  3
 10
       13.26076
 20
      -39.40357
 30
        6.00000
 11
       13.26076
 21
      -39.40357
 31
        3.00000
 12
       22.73845
 22
      -36.21397
 32
        3.00000
 13
       22.73845
 23
      -36.21397
 33
        6.00000
999
L1_ZONE1:FACE_WINDOW_1932459262
  0
3DFACE
  8
L1_ZONE1
 62
  4
 10
       13.98717
 20
      -39.15911
 30
        5.77007
 11
       13.98717
 21
      -39.15911
 31
        3.22993
 12
       22.01205
 22
      -36.45844
 32
        3.22993
 13
       22.01205
 23
      -36.45844
 33
        5.77007
999
L1_ZONE1:FACE_WALL_300139206
  0
3DFACE
  8
L1_ZONE1
 62
  3
 10
       22.73845
 20
      -36.21397
 30
        6.00000
 11
       22.73845
 21
      -36.21397
 31
        3.00000
 12
       12.66728
 22
       -6.28809
 32
        3.00000
 13
       12.66728
 23
       -6.28809
 33
        6.00000
999
L1_ZONE1:FACE_WINDOW_548439
  0
3DFACE
  8
L1_ZONE1
 62
  4
 10
       21.96656
 20
      -33.92035
 30
        5.77007
 11
       21.96656
 21
      -33.92035
 31
        3.22993
 12
       13.43917
 22
       -8.58172
 32
        3.22993
 13
       13.43917
 23
       -8.58172
 33
        5.77007
999
L1_ZONE1:iz-FACE_WALL_1626054413
  0
3DFACE
  8
L1_ZONE1
 62
  3
 10
        3.18959
 20
       -9.47768
 30
        6.00000
 11
        3.18959
 21
       -9.47768
 31
        3.00000
 12
       12.66728
 22
       -6.28809
 32
        3.00000
 13
       12.66728
 23
       -6.28809
 33
        6.00000
999
L1_ZONE1:FACE_FLOOR_772581038
  0
3DFACE
  8
L1_ZONE1
 62
  2
 10
        3.18959
 20
       -9.47768
 30
        3.00000
 11
       12.66728
 21
       -6.28809
 31
        3.00000
 12
       22.73845
 22
      -36.21397
 32
        3.00000
 13
       13.26076
 23
      -39.40357
 33
        3.00000
999
L1_ZONE1:iz-FACE_FLOOR_206339600
  0
3DFACE
  8
L1_ZONE1
 62
  8
 10
       22.73845
 20
      -36.21397
 30
        6.00000
 11
       12.66728
 21
       -6.28809
 31
        6.00000
 12
        3.18959
 22
       -9.47768
 32
        6.00000
 13
       13.26076
 23
      -39.40357
 33
        6.00000
999
L1_ZONE1:FACE_SHADING_627679685
  0
3DFACE
  8
L1_ZONE1
 62
  6
 10
       13.43917
 20
       -8.58172
 30
        3.22993
 11
       15.33470
 21
       -7.94380
 31
        3.22993
 12
       23.86210
 22
      -33.28243
 32
        3.22993
 13
       21.96656
 23
      -33.92035
 33
        3.22993
999
L1_ZONE1:Mir-FACE_SHADING_627679685
  0
3DFACE
  8
L1_ZONE1
 62
  6
 10
       21.96656
 20
      -33.92035
 30
        3.22993
 11
       23.86210
 21
      -33.28243
 31
        3.22993
 12
       15.33470
 22
       -7.94380
 32
        3.22993
 13
       13.43917
 23
       -8.58172
 33
        3.22993
999
L1_ZONE1:FACE_SHADING_972791731
  0
3DFACE
  8
L1_ZONE1
 62
  6
 10
       15.33470
 20
       -7.94380
 30
        5.77007
 11
       15.33470
 21
       -7.94380
 31
        3.22993
 12
       13.43917
 22
       -8.58172
 32
        3.22993
 13
       13.43917
 23
       -8.58172
 33
        5.77007
999
L1_ZONE1:Mir-FACE_SHADING_972791731
  0
3DFACE
  8
L1_ZONE1
 62
  6
 10
       13.43917
 20
       -8.58172
 30
        5.77007
 11
       13.43917
 21
       -8.58172
 31
        3.22993
 12
       15.33470
 22
       -7.94380
 32
        3.22993
 13
       15.33470
 23
       -7.94380
 33
        5.77007
999
L1_ZONE1:FACE_SHADING_917618306
  0
3DFACE
  8
L1_ZONE1
 62
  6
 10
       21.96656
 20
      -33.92035
 30
        5.77007
 11
       23.86210
 21
      -33.28243
 31
        5.77007
 12
       15.33470
 22
       -7.94380
 32
        5.77007
 13
       13.43917
 23
       -8.58172
 33
        5.77007
999
L1_ZONE1:Mir-FACE_SHADING_917618306
  0
3DFACE
  8
L1_ZONE1
 62
  6
 10
       13.43917
 20
       -8.58172
 30
        5.77007
 11
       15.33470
 21
       -7.94380
 31
        5.77007
 12
       23.86210
 22
      -33.28243
 32
        5.77007
 13
       21.96656
 23
      -33.92035
 33
        5.77007
999
L1_ZONE1:FACE_SHADING_1330799835
  0
3DFACE
  8
L1_ZONE1
 62
  6
 10
       21.96656
 20
      -33.92035
 30
        5.77007
 11
       21.96656
 21
      -33.92035
 31
        3.22993
 12
       23.86210
 22
      -33.28243
 32
        3.22993
 13
       23.86210
 23
      -33.28243
 33
        5.77007
999
L1_ZONE1:Mir-FACE_SHADING_1330799835
  0
3DFACE
  8
L1_ZONE1
 62
  6
 10
       23.86210
 20
      -33.28243
 30
        5.77007
 11
       23.86210
 21
      -33.28243
 31
        3.22993
 12
       21.96656
 22
      -33.92035
 32
        3.22993
 13
       21.96656
 23
      -33.92035
 33
        5.77007
999
L1_ZONE2:FACE_WALL_710643340
  0
3DFACE
  8
L1_ZONE2
 62
  3
 10
        3.18959
 20
       -9.47768
 30
        6.00000
 11
        3.18959
 21
       -9.47768
 31
        3.00000
 12
        0.00000
 22
       -0.00000
 32
        3.00000
 13
        0.00000
 23
       -0.00000
 33
        6.00000
999
L1_ZONE2:FACE_WALL_1626054413
  0
3DFACE
  8
L1_ZONE2
 62
  3
 10
       12.66728
 20
       -6.28809
 30
        6.00000
 11
       12.66728
 21
       -6.28809
 31
        3.00000
 12
        3.18959
 22
       -9.47768
 32
        3.00000
 13
        3.18959
 23
       -9.47768
 33
        6.00000
999
L1_ZONE2:FACE_WALL_1903646637
  0
3DFACE
  8
L1_ZONE2
 62
  3
 10
        9.47768
 20
        3.18959
 30
        6.00000
 11
        9.47768
 21
        3.18959
 31
        3.00000
 12
       12.66728
 22
       -6.28809
 32
        3.00000
 13
       12.66728
 23
       -6.28809
 33
        6.00000
999
L1_ZONE2:FACE_WINDOW_1377655053
  0
3DFACE
  8
L1_ZONE2
 62
  4
 10
        9.72215
 20
        2.46319
 30
        5.77007
 11
        9.72215
 21
        2.46319
 31
        3.22993
 12
       12.42282
 22
       -5.56169
 32
        3.22993
 13
       12.42282
 23
       -5.56169
 33
        5.77007
999
L1_ZONE2:FACE_WALL_79793817
  0
3DFACE
  8
L1_ZONE2
 62
  3
 10
        0.00000
 20
       -0.00000
 30
        6.00000
 11
        0.00000
 21
       -0.00000
 31
        3.00000
 12
        9.47768
 22
        3.18959
 32
        3.00000
 13
        9.47768
 23
        3.18959
 33
        6.00000
999
L1_ZONE2:FACE_WINDOW_1064886591
  0
3DFACE
  8
L1_ZONE2
 62
  4
 10
        0.72640
 20
        0.24446
 30
        5.77007
 11
        0.72640
 21
        0.24446
 31
        3.22993
 12
        8.75128
 22
        2.94513
 32
        3.22993
 13
        8.75128
 23
        2.94513
 33
        5.77007
999
L1_ZONE2:FACE_FLOOR_219627569
  0
3DFACE
  8
L1_ZONE2
 62
  2
 10
       12.66728
 20
       -6.28809
 30
        3.00000
 11
        3.18959
 21
       -9.47768
 31
        3.00000
 12
        0.00000
 22
       -0.00000
 32
        3.00000
 13
        9.47768
 23
        3.18959
 33
        3.00000
999
L1_ZONE2:iz-FACE_FLOOR_280648321
  0
3DFACE
  8
L1_ZONE2
 62
  8
 10
        9.47768
 20
        3.18959
 30
        6.00000
 11
        0.00000
 21
       -0.00000
 31
        6.00000
 12
        3.18959
 22
       -9.47768
 32
        6.00000
 13
       12.66728
 23
       -6.28809
 33
        6.00000
999
L2_ZONE1:FACE_WALL_420220839
  0
3DFACE
  8
L2_ZONE1
 62
  3
 10
        3.18959
 20
       -9.47768
 30
        9.00000
 11
       13.26076
 21
      -39.40357
 31
        9.00000
 12
        3.18959
 22
       -9.47768
 32
        6.00000
 13
        3.18959
 23
       -9.47768
 33
        6.00000
999
L2_ZONE1:FACE_WALL_1725409737
  0
3DFACE
  8
L2_ZONE1
 62
  3
 10
       13.26076
 20
      -39.40357
 30
        6.00000
 11
        3.18959
 21
       -9.47768
 31
        6.00000
 12
       13.26076
 22
      -39.40357
 32
        9.00000
 13
       13.26076
 23
      -39.40357
 33
        9.00000
999
L2_ZONE1:FACE_WALL_1489764318
  0
3DFACE
  8
L2_ZONE1
 62
  3
 10
       13.26076
 20
      -39.40357
 30
        9.00000
 11
       14.26271
 21
      -42.38079
 31
        9.00000
 12
       13.26076
 22
      -39.40357
 32
        6.00000
 13
       13.26076
 23
      -39.40357
 33
        6.00000
999
L2_ZONE1:FACE_WALL_957052253
  0
3DFACE
  8
L2_ZONE1
 62
  3
 10
       14.26271
 20
      -42.38079
 30
        6.00000
 11
       13.26076
 21
      -39.40357
 31
        6.00000
 12
       14.26271
 22
      -42.38079
 32
        9.00000
 13
       14.26271
 23
      -42.38079
 33
        9.00000
999
L2_ZONE1:FACE_WALL_524700141
  0
3DFACE
  8
L2_ZONE1
 62
  3
 10
       14.26271
 20
      -42.38079
 30
        6.00000
 11
       23.74040
 21
      -39.19120
 31
        6.00000
 12
       22.73845
 22
      -36.21397
 32
        6.00000
 13
       13.26076
 23
      -39.40357
 33
        6.00000
999
L2_ZONE1:FACE_WALL_1067415205
  0
3DFACE
  8
L2_ZONE1
 62
  3
 10
       12.66728
 20
       -6.28809
 30
        9.00000
 11
       12.66728
 21
       -6.28809
 31
        6.00000
 12
       22.73845
 22
      -36.21397
 32
        6.00000
 13
       22.73845
 23
      -36.21397
 33
        9.00000
999
L2_ZONE1:FACE_WALL_2116447044
  0
3DFACE
  8
L2_ZONE1
 62
  3
 10
       13.26076
 20
      -39.40357
 30
        9.00000
 11
       20.95467
 21
      -36.81428
 31
       11.94964
 12
       22.73845
 22
      -36.21397
 32
        9.00000
 13
       22.73845
 23
      -36.21397
 33
        9.00000
999
L2_ZONE1:FACE_WALL_1911050942
  0
3DFACE
  8
L2_ZONE1
 62
  3
 10
       23.74040
 20
      -39.19120
 30
        9.00000
 11
       23.74040
 21
      -39.19120
 31
        6.00000
 12
       14.26271
 22
      -42.38079
 32
        6.00000
 13
       14.26271
 23
      -42.38079
 33
        9.00000
999
L2_ZONE1:FACE_WINDOW_1267757662
  0
3DFACE
  8
L2_ZONE1
 62
  4
 10
       23.01399
 20
      -39.43566
 30
        8.77007
 11
       23.01399
 21
      -39.43566
 31
        6.22993
 12
       14.98911
 22
      -42.13633
 32
        6.22993
 13
       14.98911
 23
      -42.13633
 33
        8.77007
999
L2_ZONE1:FACE_WALL_2017763347
  0
3DFACE
  8
L2_ZONE1
 62
  3
 10
       22.73845
 20
      -36.21397
 30
        9.00000
 11
       22.73845
 21
      -36.21397
 31
        6.00000
 12
       23.74040
 22
      -39.19120
 32
        6.00000
 13
       23.74040
 23
      -39.19120
 33
        9.00000
999
L2_ZONE1:FACE_WINDOW_1634303252
  0
3DFACE
  8
L2_ZONE1
 62
  4
 10
       22.81524
 20
      -36.44216
 30
        8.77007
 11
       22.81524
 21
      -36.44216
 31
        6.22993
 12
       23.66360
 22
      -38.96301
 32
        6.22993
 13
       23.66360
 23
      -38.96301
 33
        8.77007
999
L2_ZONE1:iz-FACE_WALL_582552174
  0
3DFACE
  8
L2_ZONE1
 62
  3
 10
        3.18959
 20
       -9.47768
 30
        6.00000
 11
       12.66728
 21
       -6.28809
 31
        6.00000
 12
        3.18959
 22
       -9.47768
 32
        9.00000
 13
        3.18959
 23
       -9.47768
 33
        9.00000
999
L2_ZONE1:iz-FACE_WALL_576441745
  0
3DFACE
  8
L2_ZONE1
 62
  3
 10
       12.66728
 20
       -6.28809
 30
        6.00000
 11
       12.66728
 21
       -6.28809
 31
        9.00000
 12
        3.18959
 22
       -9.47768
 32
        9.00000
 13
        3.18959
 23
       -9.47768
 33
        9.00000
999
L2_ZONE1:iz-FACE_WALL_957676598
  0
3DFACE
  8
L2_ZONE1
 62
  3
 10
       12.66728
 20
       -6.28809
 30
        9.00000
 11
       10.88350
 21
       -6.88840
 31
       11.94964
 12
        3.18959
 22
       -9.47768
 32
        9.00000
 13
        3.18959
 23
       -9.47768
 33
        9.00000
999
L2_ZONE1:FACE_FLOOR_206339600
  0
3DFACE
  8
L2_ZONE1
 62
  2
 10
       13.26076
 20
      -39.40357
 30
        6.00000
 11
        3.18959
 21
       -9.47768
 31
        6.00000
 12
       12.66728
 22
       -6.28809
 32
        6.00000
 13
       22.73845
 23
      -36.21397
 33
        6.00000
999
L2_ZONE1:FACE_ROOF_1418911234
  0
3DFACE
  8
L2_ZONE1
 62
  8
 10
       10.88350
 20
       -6.88840
 30
       11.94964
 11
        3.18959
 21
       -9.47768
 31
        9.00000
 12
       13.26076
 22
      -39.40357
 32
        9.00000
 13
       20.95467
 23
      -36.81428
 33
       11.94964
999
L2_ZONE1:FACE_ROOF_1982693550
  0
3DFACE
  8
L2_ZONE1
 62
  8
 10
       20.95467
 20
      -36.81428
 30
       11.94964
 11
       22.73845
 21
      -36.21397
 31
        9.00000
 12
       12.66728
 22
       -6.28809
 32
        9.00000
 13
       10.88350
 23
       -6.88840
 33
       11.94964
999
L2_ZONE1:FACE_ROOF_626744351
  0
3DFACE
  8
L2_ZONE1
 62
  8
 10
       13.26076
 20
      -39.40357
 30
        9.00000
 11
       14.26271
 21
      -42.38079
 31
        9.00000
 12
       23.74040
 22
      -39.19120
 32
        9.00000
 13
       22.73845
 23
      -36.21397
 33
        9.00000
999
L2_ZONE2:FACE_WALL_285018722
  0
3DFACE
  8
L2_ZONE2
 62
  3
 10
        3.18959
 20
       -9.47768
 30
        9.00000
 11
        3.18959
 21
       -9.47768
 31
        6.00000
 12
        0.00000
 22
       -0.00000
 32
        6.00000
 13
        0.00000
 23
       -0.00000
 33
        9.00000
999
L2_ZONE2:FACE_WALL_1421127844
  0
3DFACE
  8
L2_ZONE2
 62
  3
 10
        7.69391
 20
        2.58929
 30
       11.94964
 11
        0.00000
 21
       -0.00000
 31
        9.00000
 12
        9.47768
 22
        3.18959
 32
        9.00000
 13
        9.47768
 23
        3.18959
 33
        9.00000
999
L2_ZONE2:FACE_WALL_582552174
  0
3DFACE
  8
L2_ZONE2
 62
  3
 10
        3.18959
 20
       -9.47768
 30
        9.00000
 11
       12.66728
 21
       -6.28809
 31
        6.00000
 12
        3.18959
 22
       -9.47768
 32
        6.00000
 13
        3.18959
 23
       -9.47768
 33
        6.00000
999
L2_ZONE2:FACE_WALL_576441745
  0
3DFACE
  8
L2_ZONE2
 62
  3
 10
        3.18959
 20
       -9.47768
 30
        9.00000
 11
       12.66728
 21
       -6.28809
 31
        9.00000
 12
       12.66728
 22
       -6.28809
 32
        6.00000
 13
       12.66728
 23
       -6.28809
 33
        6.00000
999
L2_ZONE2:FACE_WALL_957676598
  0
3DFACE
  8
L2_ZONE2
 62
  3
 10
        3.18959
 20
       -9.47768
 30
        9.00000
 11
       10.88350
 21
       -6.88840
 31
       11.94964
 12
       12.66728
 22
       -6.28809
 32
        9.00000
 13
       12.66728
 23
       -6.28809
 33
        9.00000
999
L2_ZONE2:FACE_WALL_982242235
  0
3DFACE
  8
L2_ZONE2
 62
  3
 10
        0.00000
 20
       -0.00000
 30
        9.00000
 11
        0.00000
 21
       -0.00000
 31
        6.00000
 12
        9.47768
 22
        3.18959
 32
        6.00000
 13
        9.47768
 23
        3.18959
 33
        9.00000
999
L2_ZONE2:FACE_WINDOW_838449156
  0
3DFACE
  8
L2_ZONE2
 62
  4
 10
        0.72640
 20
        0.24446
 30
        8.77007
 11
        0.72640
 21
        0.24446
 31
        6.22993
 12
        8.75128
 22
        2.94513
 32
        6.22993
 13
        8.75128
 23
        2.94513
 33
        8.77007
999
L2_ZONE2:FACE_WALL_1424927720
  0
3DFACE
  8
L2_ZONE2
 62
  3
 10
       12.66728
 20
       -6.28809
 30
        9.00000
 11
       12.66728
 21
       -6.28809
 31
        6.00000
 12
        9.47768
 22
        3.18959
 32
        6.00000
 13
        9.47768
 23
        3.18959
 33
        9.00000
999
L2_ZONE2:FACE_WINDOW_22558696
  0
3DFACE
  8
L2_ZONE2
 62
  4
 10
       12.42282
 20
       -5.56169
 30
        8.77007
 11
       12.42282
 21
       -5.56169
 31
        6.22993
 12
        9.72215
 22
        2.46319
 32
        6.22993
 13
        9.72215
 23
        2.46319
 33
        8.77007
999
L2_ZONE2:FACE_FLOOR_280648321
  0
3DFACE
  8
L2_ZONE2
 62
  2
 10
       12.66728
 20
       -6.28809
 30
        6.00000
 11
        3.18959
 21
       -9.47768
 31
        6.00000
 12
        0.00000
 22
       -0.00000
 32
        6.00000
 13
        9.47768
 23
        3.18959
 33
        6.00000
999
L2_ZONE2:FACE_ROOF_27273278
  0
3DFACE
  8
L2_ZONE2
 62
  8
 10
        7.69391
 20
        2.58929
 30
       11.94964
 11
        0.00000
 21
       -0.00000
 31
        9.00000
 12
        3.18959
 22
       -9.47768
 32
        9.00000
 13
       10.88350
 23
       -6.88840
 33
       11.94964
999
L2_ZONE2:FACE_ROOF_967966535
  0
3DFACE
  8
L2_ZONE2
 62
  8
 10
       10.88350
 20
       -6.88840
 30
       11.94964
 11
       12.66728
 21
       -6.28809
 31
        9.00000
 12
        9.47768
 22
        3.18959
 32
        9.00000
 13
        7.69391
 23
        2.58929
 33
       11.94964
999
L2_ZONE2:FACE_SHADING_1186881800
  0
3DFACE
  8
L2_ZONE2
 62
  6
 10
       12.42282
 20
       -5.56169
 30
        8.77007
 11
       14.31835
 21
       -4.92377
 31
        8.77007
 12
       11.61768
 22
        3.10111
 32
        8.77007
 13
        9.72215
 23
        2.46319
 33
        8.77007
999
L2_ZONE2:Mir-FACE_SHADING_1186881800
  0
3DFACE
  8
L2_ZONE2
 62
  6
 10
        9.72215
 20
        2.46319
 30
        8.77007
 11
       11.61768
 21
        3.10111
 31
        8.77007
 12
       14.31835
 22
       -4.92377
 32
        8.77007
 13
       12.42282
 23
       -5.56169
 33
        8.77007
999
L2_ZONE2:FACE_SHADING_2094299264
  0
3DFACE
  8
L2_ZONE2
 62
  6
 10
       12.42282
 20
       -5.56169
 30
        8.77007
 11
       12.42282
 21
       -5.56169
 31
        6.22993
 12
       14.31835
 22
       -4.92377
 32
        6.22993
 13
       14.31835
 23
       -4.92377
 33
        8.77007
999
L2_ZONE2:Mir-FACE_SHADING_2094299264
  0
3DFACE
  8
L2_ZONE2
 62
  6
 10
       14.31835
 20
       -4.92377
 30
        8.77007
 11
       14.31835
 21
       -4.92377
 31
        6.22993
 12
       12.42282
 22
       -5.56169
 32
        6.22993
 13
       12.42282
 23
       -5.56169
 33
        8.77007
999
L2_ZONE2:FACE_SHADING_1630755718
  0
3DFACE
  8
L2_ZONE2
 62
  6
 10
        9.72215
 20
        2.46319
 30
        6.22993
 11
       11.61768
 21
        3.10111
 31
        6.22993
 12
       14.31835
 22
       -4.92377
 32
        6.22993
 13
       12.42282
 23
       -5.56169
 33
        6.22993
999
L2_ZONE2:Mir-FACE_SHADING_1630755718
  0
3DFACE
  8
L2_ZONE2
 62
  6
 10
       12.42282
 20
       -5.56169
 30
        6.22993
 11
       14.31835
 21
       -4.92377
 31
        6.22993
 12
       11.61768
 22
        3.10111
 32
        6.22993
 13
        9.72215
 23
        2.46319
 33
        6.22993
999
L2_ZONE2:FACE_SHADING_1925049412
  0
3DFACE
  8
L2_ZONE2
 62
  6
 10
       11.61768
 20
        3.10111
 30
        8.77007
 11
       11.61768
 21
        3.10111
 31
        6.22993
 12
        9.72215
 22
        2.46319
 32
        6.22993
 13
        9.72215
 23
        2.46319
 33
        8.77007
999
L2_ZONE2:Mir-FACE_SHADING_1925049412
  0
3DFACE
  8
L2_ZONE2
 62
  6
 10
        9.72215
 20
        2.46319
 30
        8.77007
 11
        9.72215
 21
        2.46319
 31
        6.22993
 12
       11.61768
 22
        3.10111
 32
        6.22993
 13
       11.61768
 23
        3.10111
 33
        8.77007
999
L0_ZONE1:DayRefPt:1
  0
CIRCLE
  8
L0_ZONE1
 62
 10
 10
        9.99620
 20
      -21.26526
 30
        0.80000
 40
        0.20000
999
L0_ZONE2:DayRefPt:1
  0
CIRCLE
  8
L0_ZONE2
 62
 10
 10
        1.75599
 20
       19.99201
 30
        0.80000
 40
        0.20000
999
L1_ZONE1:DayRefPt:1
  0
CIRCLE
  8
L1_ZONE1
 62
 10
 10
       12.96402
 20
      -22.84583
 30
        3.80000
 40
        0.20000
999
L1_ZONE2:DayRefPt:1
  0
CIRCLE
  8
L1_ZONE2
 62
 10
 10
        6.33364
 20
       -3.14405
 30
        3.80000
 40
        0.20000
999
L2_ZONE1:DayRefPt:1
  0
CIRCLE
  8
L2_ZONE1
 62
 10
 10
       12.96402
 20
      -22.84583
 30
        6.80000
 40
        0.20000
999
L2_ZONE2:DayRefPt:1
  0
CIRCLE
  8
L2_ZONE2
 62
 10
 10
        6.33364
 20
       -3.14405
 30
        6.80000
 40
        0.20000
  0
ENDSEC
  0
EOF
