Program Version,EnergyPlus-Windows-64 8.0.0.008, YMD=2013.07.10 15:54
! <Version>, Version ID
 Version, 8.0.0
! <Timesteps per Hour>, #TimeSteps, Minutes per TimeStep {minutes}
 Timesteps per Hour,  6, 10
! <System Convergence Limits>, Minimum System TimeStep {minutes}, Max HVAC Iterations,  Minimum Plant Iterations, Maximum Plant Iterations
 System Convergence Limits, 1, 20, 2, 8
! <Simulation Control>, Do Zone Sizing, Do System Sizing, Do Plant Sizing, Do Design Days, Do Weather Simulation
 Simulation Control, No, No, No, No, Yes
! <Output Reporting Tolerances>, Tolerance for Time Heating Setpoint Not Met, Tolerance for Zone Cooling Setpoint Not Met Time
 Output Reporting Tolerances, 0.200, 0.200, 
! <Site:GroundTemperature:BuildingSurface>, Months From Jan to Dec {C}
 Site:GroundTemperature:BuildingSurface,  18.00,  18.00,  18.00,  18.00,  18.00,  18.00,  18.00,  18.00,  18.00,  18.00,  18.00,  18.00
! <Site:GroundTemperature:FCfactorMethod>, Months From Jan to Dec {C}
 Site:GroundTemperature:FCfactorMethod,   6.18,   4.19,   3.65,   4.12,   6.81,   9.82,  12.65,  14.71,  15.30,  14.34,  12.02,   9.09
! <Site:GroundTemperature:Shallow>, Months From Jan to Dec {C}
 Site:GroundTemperature:Shallow,  13.00,  13.00,  13.00,  13.00,  13.00,  13.00,  13.00,  13.00,  13.00,  13.00,  13.00,  13.00
! <Site:GroundTemperature:Deep>, Months From Jan to Dec {C}
 Site:GroundTemperature:Deep,  16.00,  16.00,  16.00,  16.00,  16.00,  16.00,  16.00,  16.00,  16.00,  16.00,  16.00,  16.00
! <Site:GroundReflectance>, Months From Jan to Dec {dimensionless}
 Site:GroundReflectance,  0.20,  0.20,  0.20,  0.20,  0.20,  0.20,  0.20,  0.20,  0.20,  0.20,  0.20,  0.20
! <Site:GroundReflectance:SnowModifier>, Normal, Daylighting {dimensionless}
 Site:GroundReflectance:SnowModifier,   1.000,   1.000
! <Site:GroundReflectance:Snow>, Months From Jan to Dec {dimensionless}
 Site:GroundReflectance:Snow,  0.20,  0.20,  0.20,  0.20,  0.20,  0.20,  0.20,  0.20,  0.20,  0.20,  0.20,  0.20
! <Site:GroundReflectance:Snow:Daylighting>, Months From Jan to Dec {dimensionless}
 Site:GroundReflectance:Snow:Daylighting,  0.20,  0.20,  0.20,  0.20,  0.20,  0.20,  0.20,  0.20,  0.20,  0.20,  0.20,  0.20
! <Environment:Weather Station>,Wind Sensor Height Above Ground {m},Wind Speed Profile Exponent {},Wind Speed Profile Boundary Layer Thickness {m},Air Temperature Sensor Height Above Ground {m},Wind Speed Modifier Coefficient [Internal],Temperature Modifier Coefficient [Internal]
Environment:Weather Station,10.000,0.140,270.000,1.500,1.586,9.750E-003
! <Site:Location>, Location Name, Latitude {N+/S- Deg}, Longitude {E+/W- Deg},  Time Zone Number {GMT+/-}, Elevation {m},  Standard Pressure at Elevation {Pa}, Standard RhoAir at Elevation
Site:Location,FINNINGLEY - GBR IWEC Data WMO#=033600,53.48,-1.00,0.00,17.00,101121,1.2019
! <Building Information>, Building Name,North Axis {deg},Terrain,  Loads Convergence Tolerance Value,Temperature Convergence Tolerance Value,  Solar Distribution,Maximum Number of Warmup Days,Minimum Number of Warmup Days
 Building Information,ANAR.ch,0.000,Suburbs,1.00000E-002,0.10000,FullExteriorWithReflectionsFromExteriorSurfaces,25,6
! <Inside Convection Algorithm>, Algorithm {Simple | TARP | CeilingDiffuser | AdaptiveConvectionAlgorithm}
Inside Convection Algorithm,Simple
! <Outside Convection Algorithm>, Algorithm {SimpleCombined | TARP | MoWitt | DOE-2 | AdaptiveConvectionAlgorithm}
Outside Convection Algorithm,SimpleCombined
! <Sky Radiance Distribution>, Value {Anisotropic}
Sky Radiance Distribution,Anisotropic
! <Zone Air Solution Algorithm>, Value {ThirdOrderBackwardDifference | AnalyticalSolution | EulerMethod}
 Zone Air Solution Algorithm, ThirdOrderBackwardDifference
! <Zone Air Contaminant Balance Simulation>, Simulation {Yes/No}, Carbon Dioxide Concentration
 Zone Air Carbon Dioxide Balance Simulation, No,N/A
! <Zone Air Contaminant Balance Simulation>, Simulation {Yes/No}, Generic Contaminant Concentration
 Zone Air Generic Contaminant Balance Simulation, No,N/A
! <Environment:Site Atmospheric Variation>,Wind Speed Profile Exponent {},Wind Speed Profile Boundary Layer Thickness {m},Air Temperature Gradient Coefficient {K/m}
Environment:Site Atmospheric Variation,0.220,370.000,6.500000E-003
! <SurfaceGeometry>,Starting Corner,Vertex Input Direction,Coordinate System,Daylight Reference Point Coordinate System,Rectangular (Simple) Surface Coordinate System
 Surface Geometry,UpperRightCorner,Counterclockwise,WorldCoordinateSystem,WorldCoordinateSystem,WorldCoordinateSystem
! <ShadingProperty Reflectance>,Shading Surface Name,Shading Type,Diffuse Solar Reflectance, Diffuse Visible Reflectance,Surface Glazing Fraction,Surface Glazing Contruction
ShadingProperty Reflectance,FACE_WALL_316841782,Detached Shading:Fixed,0.20,0.20,0.00, N/A
ShadingProperty Reflectance,Mir-FACE_WALL_316841782,Detached Shading:Fixed,0.20,0.20,0.00, N/A
ShadingProperty Reflectance,FACE_WALL_1547869161,Detached Shading:Fixed,0.20,0.20,0.00, N/A
ShadingProperty Reflectance,Mir-FACE_WALL_1547869161,Detached Shading:Fixed,0.20,0.20,0.00, N/A
ShadingProperty Reflectance,FACE_WALL_420089169,Detached Shading:Fixed,0.20,0.20,0.00, N/A
ShadingProperty Reflectance,Mir-FACE_WALL_420089169,Detached Shading:Fixed,0.20,0.20,0.00, N/A
ShadingProperty Reflectance,FACE_WALL_1659915694,Detached Shading:Fixed,0.20,0.20,0.00, N/A
ShadingProperty Reflectance,Mir-FACE_WALL_1659915694,Detached Shading:Fixed,0.20,0.20,0.00, N/A
ShadingProperty Reflectance,FACE_WALL_243010881,Detached Shading:Fixed,0.20,0.20,0.00, N/A
ShadingProperty Reflectance,Mir-FACE_WALL_243010881,Detached Shading:Fixed,0.20,0.20,0.00, N/A
ShadingProperty Reflectance,FACE_WALL_1917464020,Detached Shading:Fixed,0.20,0.20,0.00, N/A
ShadingProperty Reflectance,Mir-FACE_WALL_1917464020,Detached Shading:Fixed,0.20,0.20,0.00, N/A
ShadingProperty Reflectance,FACE_WALL_1678177258,Detached Shading:Fixed,0.20,0.20,0.00, N/A
ShadingProperty Reflectance,Mir-FACE_WALL_1678177258,Detached Shading:Fixed,0.20,0.20,0.00, N/A
ShadingProperty Reflectance,FACE_WALL_74955508,Detached Shading:Fixed,0.20,0.20,0.00, N/A
ShadingProperty Reflectance,Mir-FACE_WALL_74955508,Detached Shading:Fixed,0.20,0.20,0.00, N/A
ShadingProperty Reflectance,FACE_WALL_1351805814,Detached Shading:Fixed,0.20,0.20,0.00, N/A
ShadingProperty Reflectance,Mir-FACE_WALL_1351805814,Detached Shading:Fixed,0.20,0.20,0.00, N/A
ShadingProperty Reflectance,FACE_WALL_1570814285,Detached Shading:Fixed,0.20,0.20,0.00, N/A
ShadingProperty Reflectance,Mir-FACE_WALL_1570814285,Detached Shading:Fixed,0.20,0.20,0.00, N/A
ShadingProperty Reflectance,FACE_WALL_1659215424,Detached Shading:Fixed,0.20,0.20,0.00, N/A
ShadingProperty Reflectance,Mir-FACE_WALL_1659215424,Detached Shading:Fixed,0.20,0.20,0.00, N/A
ShadingProperty Reflectance,FACE_WALL_1358474873,Detached Shading:Fixed,0.20,0.20,0.00, N/A
ShadingProperty Reflectance,Mir-FACE_WALL_1358474873,Detached Shading:Fixed,0.20,0.20,0.00, N/A
ShadingProperty Reflectance,FACE_WALL_1988539254,Detached Shading:Fixed,0.20,0.20,0.00, N/A
ShadingProperty Reflectance,Mir-FACE_WALL_1988539254,Detached Shading:Fixed,0.20,0.20,0.00, N/A
ShadingProperty Reflectance,FACE_WALL_91243717,Detached Shading:Fixed,0.20,0.20,0.00, N/A
ShadingProperty Reflectance,Mir-FACE_WALL_91243717,Detached Shading:Fixed,0.20,0.20,0.00, N/A
ShadingProperty Reflectance,FACE_WALL_229827661,Detached Shading:Fixed,0.20,0.20,0.00, N/A
ShadingProperty Reflectance,Mir-FACE_WALL_229827661,Detached Shading:Fixed,0.20,0.20,0.00, N/A
ShadingProperty Reflectance,FACE_WALL_1537901121,Detached Shading:Fixed,0.20,0.20,0.00, N/A
ShadingProperty Reflectance,Mir-FACE_WALL_1537901121,Detached Shading:Fixed,0.20,0.20,0.00, N/A
ShadingProperty Reflectance,FACE_WALL_390965355,Detached Shading:Fixed,0.20,0.20,0.00, N/A
ShadingProperty Reflectance,Mir-FACE_WALL_390965355,Detached Shading:Fixed,0.20,0.20,0.00, N/A
ShadingProperty Reflectance,FACE_WALL_1802245312,Detached Shading:Fixed,0.20,0.20,0.00, N/A
ShadingProperty Reflectance,Mir-FACE_WALL_1802245312,Detached Shading:Fixed,0.20,0.20,0.00, N/A
ShadingProperty Reflectance,FACE_WALL_80117849,Detached Shading:Fixed,0.20,0.20,0.00, N/A
ShadingProperty Reflectance,Mir-FACE_WALL_80117849,Detached Shading:Fixed,0.20,0.20,0.00, N/A
ShadingProperty Reflectance,FACE_WALL_68441474,Detached Shading:Fixed,0.20,0.20,0.00, N/A
ShadingProperty Reflectance,Mir-FACE_WALL_68441474,Detached Shading:Fixed,0.20,0.20,0.00, N/A
ShadingProperty Reflectance,FACE_WALL_1392102373,Detached Shading:Fixed,0.20,0.20,0.00, N/A
ShadingProperty Reflectance,Mir-FACE_WALL_1392102373,Detached Shading:Fixed,0.20,0.20,0.00, N/A
ShadingProperty Reflectance,FACE_WALL_230248946,Detached Shading:Fixed,0.20,0.20,0.00, N/A
ShadingProperty Reflectance,Mir-FACE_WALL_230248946,Detached Shading:Fixed,0.20,0.20,0.00, N/A
ShadingProperty Reflectance,FACE_WALL_28503528,Detached Shading:Fixed,0.20,0.20,0.00, N/A
ShadingProperty Reflectance,Mir-FACE_WALL_28503528,Detached Shading:Fixed,0.20,0.20,0.00, N/A
ShadingProperty Reflectance,FACE_WALL_169941815,Detached Shading:Fixed,0.20,0.20,0.00, N/A
ShadingProperty Reflectance,Mir-FACE_WALL_169941815,Detached Shading:Fixed,0.20,0.20,0.00, N/A
ShadingProperty Reflectance,FACE_WALL_58834195,Detached Shading:Fixed,0.20,0.20,0.00, N/A
ShadingProperty Reflectance,Mir-FACE_WALL_58834195,Detached Shading:Fixed,0.20,0.20,0.00, N/A
ShadingProperty Reflectance,FACE_WALL_983837745,Detached Shading:Fixed,0.20,0.20,0.00, N/A
ShadingProperty Reflectance,Mir-FACE_WALL_983837745,Detached Shading:Fixed,0.20,0.20,0.00, N/A
ShadingProperty Reflectance,FACE_WALL_1884381962,Detached Shading:Fixed,0.20,0.20,0.00, N/A
ShadingProperty Reflectance,Mir-FACE_WALL_1884381962,Detached Shading:Fixed,0.20,0.20,0.00, N/A
ShadingProperty Reflectance,FACE_WALL_1866293025,Detached Shading:Fixed,0.20,0.20,0.00, N/A
ShadingProperty Reflectance,Mir-FACE_WALL_1866293025,Detached Shading:Fixed,0.20,0.20,0.00, N/A
ShadingProperty Reflectance,FACE_WALL_640723093,Detached Shading:Fixed,0.20,0.20,0.00, N/A
ShadingProperty Reflectance,Mir-FACE_WALL_640723093,Detached Shading:Fixed,0.20,0.20,0.00, N/A
ShadingProperty Reflectance,FACE_WALL_1150017993,Detached Shading:Fixed,0.20,0.20,0.00, N/A
ShadingProperty Reflectance,Mir-FACE_WALL_1150017993,Detached Shading:Fixed,0.20,0.20,0.00, N/A
ShadingProperty Reflectance,FACE_WALL_999585351,Detached Shading:Fixed,0.20,0.20,0.00, N/A
ShadingProperty Reflectance,Mir-FACE_WALL_999585351,Detached Shading:Fixed,0.20,0.20,0.00, N/A
ShadingProperty Reflectance,FACE_WALL_266423776,Detached Shading:Fixed,0.20,0.20,0.00, N/A
ShadingProperty Reflectance,Mir-FACE_WALL_266423776,Detached Shading:Fixed,0.20,0.20,0.00, N/A
ShadingProperty Reflectance,FACE_WALL_280999237,Detached Shading:Fixed,0.20,0.20,0.00, N/A
ShadingProperty Reflectance,Mir-FACE_WALL_280999237,Detached Shading:Fixed,0.20,0.20,0.00, N/A
ShadingProperty Reflectance,FACE_WALL_437636506,Detached Shading:Fixed,0.20,0.20,0.00, N/A
ShadingProperty Reflectance,Mir-FACE_WALL_437636506,Detached Shading:Fixed,0.20,0.20,0.00, N/A
ShadingProperty Reflectance,FACE_WALL_225265367,Detached Shading:Fixed,0.20,0.20,0.00, N/A
ShadingProperty Reflectance,Mir-FACE_WALL_225265367,Detached Shading:Fixed,0.20,0.20,0.00, N/A
ShadingProperty Reflectance,FACE_WALL_21353508,Detached Shading:Fixed,0.20,0.20,0.00, N/A
ShadingProperty Reflectance,Mir-FACE_WALL_21353508,Detached Shading:Fixed,0.20,0.20,0.00, N/A
ShadingProperty Reflectance,FACE_WALL_258639907,Detached Shading:Fixed,0.20,0.20,0.00, N/A
ShadingProperty Reflectance,Mir-FACE_WALL_258639907,Detached Shading:Fixed,0.20,0.20,0.00, N/A
ShadingProperty Reflectance,FACE_WALL_454015421,Detached Shading:Fixed,0.20,0.20,0.00, N/A
ShadingProperty Reflectance,Mir-FACE_WALL_454015421,Detached Shading:Fixed,0.20,0.20,0.00, N/A
ShadingProperty Reflectance,FACE_WALL_627782956,Detached Shading:Fixed,0.20,0.20,0.00, N/A
ShadingProperty Reflectance,Mir-FACE_WALL_627782956,Detached Shading:Fixed,0.20,0.20,0.00, N/A
ShadingProperty Reflectance,FACE_WALL_560983781,Detached Shading:Fixed,0.20,0.20,0.00, N/A
ShadingProperty Reflectance,Mir-FACE_WALL_560983781,Detached Shading:Fixed,0.20,0.20,0.00, N/A
ShadingProperty Reflectance,FACE_WALL_1001196937,Detached Shading:Fixed,0.20,0.20,0.00, N/A
ShadingProperty Reflectance,Mir-FACE_WALL_1001196937,Detached Shading:Fixed,0.20,0.20,0.00, N/A
ShadingProperty Reflectance,FACE_WALL_1582545914,Detached Shading:Fixed,0.20,0.20,0.00, N/A
ShadingProperty Reflectance,Mir-FACE_WALL_1582545914,Detached Shading:Fixed,0.20,0.20,0.00, N/A
ShadingProperty Reflectance,FACE_WALL_1264208503,Detached Shading:Fixed,0.20,0.20,0.00, N/A
ShadingProperty Reflectance,Mir-FACE_WALL_1264208503,Detached Shading:Fixed,0.20,0.20,0.00, N/A
ShadingProperty Reflectance,FACE_SHADING_598639019,Shading,0.20,0.20,0.00, N/A
ShadingProperty Reflectance,Mir-FACE_SHADING_598639019,Shading,0.20,0.20,0.00, N/A
ShadingProperty Reflectance,FACE_SHADING_365106138,Shading,0.20,0.20,0.00, N/A
ShadingProperty Reflectance,Mir-FACE_SHADING_365106138,Shading,0.20,0.20,0.00, N/A
ShadingProperty Reflectance,FACE_SHADING_978081887,Shading,0.20,0.20,0.00, N/A
ShadingProperty Reflectance,Mir-FACE_SHADING_978081887,Shading,0.20,0.20,0.00, N/A
ShadingProperty Reflectance,FACE_SHADING_1782440671,Shading,0.20,0.20,0.00, N/A
ShadingProperty Reflectance,Mir-FACE_SHADING_1782440671,Shading,0.20,0.20,0.00, N/A
ShadingProperty Reflectance,FACE_SHADING_627679685,Shading,0.20,0.20,0.00, N/A
ShadingProperty Reflectance,Mir-FACE_SHADING_627679685,Shading,0.20,0.20,0.00, N/A
ShadingProperty Reflectance,FACE_SHADING_972791731,Shading,0.20,0.20,0.00, N/A
ShadingProperty Reflectance,Mir-FACE_SHADING_972791731,Shading,0.20,0.20,0.00, N/A
ShadingProperty Reflectance,FACE_SHADING_917618306,Shading,0.20,0.20,0.00, N/A
ShadingProperty Reflectance,Mir-FACE_SHADING_917618306,Shading,0.20,0.20,0.00, N/A
ShadingProperty Reflectance,FACE_SHADING_1330799835,Shading,0.20,0.20,0.00, N/A
ShadingProperty Reflectance,Mir-FACE_SHADING_1330799835,Shading,0.20,0.20,0.00, N/A
ShadingProperty Reflectance,FACE_SHADING_1186881800,Shading,0.20,0.20,0.00, N/A
ShadingProperty Reflectance,Mir-FACE_SHADING_1186881800,Shading,0.20,0.20,0.00, N/A
ShadingProperty Reflectance,FACE_SHADING_2094299264,Shading,0.20,0.20,0.00, N/A
ShadingProperty Reflectance,Mir-FACE_SHADING_2094299264,Shading,0.20,0.20,0.00, N/A
ShadingProperty Reflectance,FACE_SHADING_1630755718,Shading,0.20,0.20,0.00, N/A
ShadingProperty Reflectance,Mir-FACE_SHADING_1630755718,Shading,0.20,0.20,0.00, N/A
ShadingProperty Reflectance,FACE_SHADING_1925049412,Shading,0.20,0.20,0.00, N/A
ShadingProperty Reflectance,Mir-FACE_SHADING_1925049412,Shading,0.20,0.20,0.00, N/A
! <Surface Heat Transfer Algorithm>, Value {CTF - ConductionTransferFunction | EMPD - MoisturePenetrationDepthConductionTransferFunction | CondFD - ConductionFiniteDifference | HAMT - CombinedHeatAndMoistureFiniteElement} - Description,Inside Surface Max Temperature Limit{C}, Surface Convection Coefficient Lower Limit {W/m2-K}, Surface Convection Coefficient Upper Limit {W/m2-K}
Surface Heat Transfer Algorithm, CTF - ConductionTransferFunction,200,0.10,1000.0
! <Shading Summary>, Number of Fixed Detached Shades, Number of Building Detached Shades, Number of Attached Shades
 Shading Summary,86,0,24
! <Zone Summary>, Number of Zones, Number of Zone Surfaces, Number of SubSurfaces
 Zone Summary,6,95,16
! <Zone Information>,Zone Name,North Axis {deg},Origin X-Coordinate {m},Origin Y-Coordinate {m},Origin Z-Coordinate {m},Centroid X-Coordinate {m},Centroid Y-Coordinate {m},Centroid Z-Coordinate {m},Type,Zone Multiplier,Zone List Multiplier,Minimum X {m},Maximum X {m},Minimum Y {m},Maximum Y {m},Minimum Z {m},Maximum Z {m},Ceiling Height {m},Volume {m3},Zone Inside Convection Algorithm {Simple-Detailed-CeilingDiffuser-TrombeWall},Zone Outside Convection Algorithm {Simple-Detailed-Tarp-MoWitt-DOE-2-BLAST}, Floor Area {m2},Exterior Gross Wall Area {m2},Exterior Net Wall Area {m2},Exterior Window Area {m2}, Number of Surfaces, Number of SubSurfaces, Number of Shading SubSurfaces,  Part of Total Building Area
 Zone Information, L0_ZONE1,0.0,0.00,0.00,0.00,12.93,-23.15,1.53,1,1,1,3.19,22.74,-39.40,-6.29,0.00,3.00,3.00,244.67,Simple,Simple,299.47,225.23,185.54,39.69,11,2,0,Yes
 Zone Information, L0_ZONE2,0.0,0.00,0.00,0.00,4.74,9.79,1.50,1,1,1,-8.00,13.28,-9.48,23.77,0.00,3.00,3.00,322.86,Simple,Simple,445.28,349.44,178.51,170.93,30,6,8,Yes
 Zone Information, L1_ZONE1,0.0,0.00,0.00,0.00,12.96,-22.85,4.50,1,1,1,3.19,22.74,-39.40,-6.29,3.00,6.00,3.00,1147.25,Simple,Simple,315.75,219.45,130.03,89.42,6,2,8,Yes
 Zone Information, L1_ZONE2,0.0,0.00,0.00,0.00,6.33,-3.14,4.50,1,1,1,0.00,12.67,-9.48,3.19,3.00,6.00,3.00,300.00,Simple,Simple,100.00,90.00,46.98,43.02,6,2,0,Yes
 Zone Information, L2_ZONE1,0.0,0.00,0.00,0.00,13.62,-24.13,8.20,1,1,1,3.19,23.74,-42.38,-6.29,6.00,11.95,4.36,1377.65,Simple,Simple,315.75,284.46,256.20,28.26,16,2,0,Yes
 Zone Information, L2_ZONE2,0.0,0.00,0.00,0.00,6.57,-3.07,8.27,1,1,1,0.00,12.67,-9.48,3.19,6.00,11.95,4.47,149.16,Simple,Simple,100.00,104.75,61.73,43.02,10,2,8,Yes
! <Zone Internal Gains/Equipment Information - Nominal>,Zone Name, Floor Area {m2},# Occupants,Area per Occupant {m2/person},Occupant per Area {person/m2},Interior Lighting {W/m2},Electric Load {W/m2},Gas Load {W/m2},Other Load {W/m2},Hot Water Eq {W/m2},Steam Equipment {W/m2},Sum Loads per Area {W/m2},Outdoor Controlled Baseboard Heat
 Zone Internal Gains, L0_ZONE1,299.47,15.0,20.000,5.000E-002,2.000,2.000,0.000,0.000,0.000,0.000,4.000,No
 Zone Internal Gains, L0_ZONE2,445.28,22.3,20.000,5.000E-002,2.000,2.000,0.000,0.000,0.000,0.000,4.000,No
 Zone Internal Gains, L1_ZONE1,315.75,15.8,20.000,5.000E-002,2.000,2.000,0.000,0.000,0.000,0.000,4.000,No
 Zone Internal Gains, L1_ZONE2,100.00,5.0,20.000,5.000E-002,2.000,2.000,0.000,0.000,0.000,0.000,4.000,No
 Zone Internal Gains, L2_ZONE1,315.75,15.8,20.000,5.000E-002,2.000,2.000,0.000,0.000,0.000,0.000,4.000,No
 Zone Internal Gains, L2_ZONE2,100.00,5.0,20.000,5.000E-002,2.000,2.000,0.000,0.000,0.000,0.000,4.000,No
! <People Internal Gains - Nominal>,Name,Schedule Name,Zone Name,Zone Floor Area {m2},# Zone Occupants,Number of People {},People/Floor Area {person/m2},Floor Area per person {m2/person},Fraction Radiant,Fraction Convected,Sensible Fraction Calculation,Activity level,ASHRAE 55 Warnings,Carbon Dioxide Generation Rate,Nominal Minimum Number of People,Nominal Maximum Number of People 
 People Internal Gains, PEOPLEL0_ZONE1,DEFAULTPEOPLEOCCUPATIONSCHEDULE,L0_ZONE1,299.47,15.0,15.0,5.000E-002,20.000,0.300,0.700,AutoCalculate,DEFAULTPEOPLEACTIVITYSCHEDULE,No,3.8200E-008,7,15
 People Internal Gains, PEOPLEL0_ZONE2,DEFAULTPEOPLEOCCUPATIONSCHEDULE,L0_ZONE2,445.28,22.3,22.3,5.000E-002,20.000,0.300,0.700,AutoCalculate,DEFAULTPEOPLEACTIVITYSCHEDULE,No,3.8200E-008,11,22
 People Internal Gains, PEOPLEL1_ZONE1,DEFAULTPEOPLEOCCUPATIONSCHEDULE,L1_ZONE1,315.75,15.8,15.8,5.000E-002,20.000,0.300,0.700,AutoCalculate,DEFAULTPEOPLEACTIVITYSCHEDULE,No,3.8200E-008,8,16
 People Internal Gains, PEOPLEL1_ZONE2,DEFAULTPEOPLEOCCUPATIONSCHEDULE,L1_ZONE2,100.00,5.0,5.0,5.000E-002,20.000,0.300,0.700,AutoCalculate,DEFAULTPEOPLEACTIVITYSCHEDULE,No,3.8200E-008,2,5
 People Internal Gains, PEOPLEL2_ZONE1,DEFAULTPEOPLEOCCUPATIONSCHEDULE,L2_ZONE1,315.75,15.8,15.8,5.000E-002,20.000,0.300,0.700,AutoCalculate,DEFAULTPEOPLEACTIVITYSCHEDULE,No,3.8200E-008,8,16
 People Internal Gains, PEOPLEL2_ZONE2,DEFAULTPEOPLEOCCUPATIONSCHEDULE,L2_ZONE2,100.00,5.0,5.0,5.000E-002,20.000,0.300,0.700,AutoCalculate,DEFAULTPEOPLEACTIVITYSCHEDULE,No,3.8200E-008,2,5
! <Lights Internal Gains - Nominal>,Name,Schedule Name,Zone Name,Zone Floor Area {m2},# Zone Occupants,Lighting Level {W},Lights/Floor Area {W/m2},Lights per person {W/person},Fraction Return Air,Fraction Radiant,Fraction Short Wave,Fraction Convected,Fraction Replaceable,End-Use Category,Nominal Minimum Lighting Level {W},Nominal Maximum Lighting Level {W}
 Lights Internal Gains, LIGHTSL0_ZONE1,DEFAULTLIGHTSCHEDULE,L0_ZONE1,299.47,15.0,598.939,2.000,40.000,0.000,0.420,0.180,0.400,1.000,General,0.000,598.939
 Lights Internal Gains, LIGHTSL0_ZONE2,DEFAULTLIGHTSCHEDULE,L0_ZONE2,445.28,22.3,890.564,2.000,40.000,0.000,0.420,0.180,0.400,1.000,General,0.000,890.564
 Lights Internal Gains, LIGHTSL1_ZONE1,DEFAULTLIGHTSCHEDULE,L1_ZONE1,315.75,15.8,631.502,2.000,40.000,0.000,0.420,0.180,0.400,1.000,General,0.000,631.502
 Lights Internal Gains, LIGHTSL1_ZONE2,DEFAULTLIGHTSCHEDULE,L1_ZONE2,100.00,5.0,200.000,2.000,40.000,0.000,0.420,0.180,0.400,1.000,General,0.000,200.000
 Lights Internal Gains, LIGHTSL2_ZONE1,DEFAULTLIGHTSCHEDULE,L2_ZONE1,315.75,15.8,631.502,2.000,40.000,0.000,0.420,0.180,0.400,1.000,General,0.000,631.502
 Lights Internal Gains, LIGHTSL2_ZONE2,DEFAULTLIGHTSCHEDULE,L2_ZONE2,100.00,5.0,200.000,2.000,40.000,0.000,0.420,0.180,0.400,1.000,General,0.000,200.000
! <ElectricEquipment Internal Gains - Nominal>,Name,Schedule Name,Zone Name,Zone Floor Area {m2},# Zone Occupants,Equipment Level {W},Equipment/Floor Area {W/m2},Equipment per person {W/person},Fraction Latent,Fraction Radiant,Fraction Lost,Fraction Convected,End-Use SubCategory,Nominal Minimum Equipment Level {W},Nominal Maximum Equipment Level {W}
 ElectricEquipment Internal Gains, ELECTRICEQUIPMENTL0_ZONE1,DEFAULTELECTRICEQUIPMENTSCHEDULE,L0_ZONE1,299.47,15.0,598.939,2.000,40.000,0.000,0.300,0.000,0.700,General,0.000,598.939
 ElectricEquipment Internal Gains, ELECTRICEQUIPMENTL0_ZONE2,DEFAULTELECTRICEQUIPMENTSCHEDULE,L0_ZONE2,445.28,22.3,890.564,2.000,40.000,0.000,0.300,0.000,0.700,General,0.000,890.564
 ElectricEquipment Internal Gains, ELECTRICEQUIPMENTL1_ZONE1,DEFAULTELECTRICEQUIPMENTSCHEDULE,L1_ZONE1,315.75,15.8,631.502,2.000,40.000,0.000,0.300,0.000,0.700,General,0.000,631.502
 ElectricEquipment Internal Gains, ELECTRICEQUIPMENTL1_ZONE2,DEFAULTELECTRICEQUIPMENTSCHEDULE,L1_ZONE2,100.00,5.0,200.000,2.000,40.000,0.000,0.300,0.000,0.700,General,0.000,200.000
 ElectricEquipment Internal Gains, ELECTRICEQUIPMENTL2_ZONE1,DEFAULTELECTRICEQUIPMENTSCHEDULE,L2_ZONE1,315.75,15.8,631.502,2.000,40.000,0.000,0.300,0.000,0.700,General,0.000,631.502
 ElectricEquipment Internal Gains, ELECTRICEQUIPMENTL2_ZONE2,DEFAULTELECTRICEQUIPMENTSCHEDULE,L2_ZONE2,100.00,5.0,200.000,2.000,40.000,0.000,0.300,0.000,0.700,General,0.000,200.000
! <Shadowing/Sun Position Calculations> [Annual Simulations], Calculation Method,Value {days}, Allowable Number Figures in Shadow Overlap {}, Polygon Clipping Algorithm, Sky Diffuse Modeling Algorithm
Shadowing/Sun Position Calculations,AverageOverDaysInFrequency,20,15000,SutherlandHodgman,SimpleSkyDiffuseModeling
! <Zone/Window Adjacency Daylighting Counts>, Zone Name, Number of Exterior Windows, Number of Exterior Windows in Adjacent Zones
Zone/Window Adjacency Daylighting Counts, L0_ZONE1,2,0
Zone/Window Adjacency Daylighting Counts, L0_ZONE2,6,0
Zone/Window Adjacency Daylighting Counts, L1_ZONE1,2,0
Zone/Window Adjacency Daylighting Counts, L1_ZONE2,2,0
Zone/Window Adjacency Daylighting Counts, L2_ZONE1,2,0
Zone/Window Adjacency Daylighting Counts, L2_ZONE2,2,0
! <Zone/Window Adjacency Daylighting Matrix>, Zone Name, Number of Adjacent Zones with Windows,Adjacent Zone Names - 1st 100 (max)
Zone/Window Adjacency Daylighting Matrix, L0_ZONE1,0,
Zone/Window Adjacency Daylighting Matrix, L0_ZONE2,0,
Zone/Window Adjacency Daylighting Matrix, L1_ZONE1,0,
Zone/Window Adjacency Daylighting Matrix, L1_ZONE2,0,
Zone/Window Adjacency Daylighting Matrix, L2_ZONE1,0,
Zone/Window Adjacency Daylighting Matrix, L2_ZONE2,0,
! <RoomAir Model>, Zone Name, Mixing/Mundt/UCSDDV/UCSDCV/UCSDUFI/UCSDUFE/User Defined
RoomAir Model,L0_ZONE1,Mixing/Well-Stirred
RoomAir Model,L0_ZONE2,Mixing/Well-Stirred
RoomAir Model,L1_ZONE1,Mixing/Well-Stirred
RoomAir Model,L1_ZONE2,Mixing/Well-Stirred
RoomAir Model,L2_ZONE1,Mixing/Well-Stirred
RoomAir Model,L2_ZONE2,Mixing/Well-Stirred
! <AirflowNetwork Model:Control>, No Multizone or Distribution/Multizone with Distribution/Multizone without Distribution/Multizone with Distribution only during Fan Operation
AirflowNetwork Model:Control,NoMultizoneOrDistribution
! <Zone Volume Capacitance Multiplier>, Sensible Heat Capacity Multiplier, Moisture Capacity Multiplier, Carbon Dioxide Capacity Multiplier, Generic Contaminant Capacity Multiplier
Zone Volume Capacitance Multiplier,   1.000 ,   1.000,   1.000,   1.000
! <Environment>,Environment Name,Environment Type, Start Date, End Date, Start DayOfWeek, Duration {#days}, Source:Start DayOfWeek,  Use Daylight Saving, Use Holidays, Apply Weekend Holiday Rule,  Use Rain Values, Use Snow Values
! <Environment:Special Days>, Special Day Name, Special Day Type, Source, Start Date, Duration {#days}
! <Environment:Daylight Saving>, Daylight Saving Indicator, Source, Start Date, End Date
! <Environment:WarmupDays>, NumberofWarmupDays
Environment,FINNINGLEY - GBR IWEC Data WMO#=033600,WeatherFileRunPeriod,01/01,12/31,Sunday,365,UseWeatherFile,Yes,Yes,No ,Yes,Yes
Environment:Daylight Saving,No,
! <Sky Daylight Factors>, MonthAndDay, Zone Name, Window Name, Daylight Fac: Ref Pt #1, Daylight Fac: Ref Pt #2
 Clear Sky Daylight Factors,01/01,L0_ZONE1,FACE_WINDOW_108675190,4.4077E-004,0.0000
 Clear Turbid Sky Daylight Factors,01/01,L0_ZONE1,FACE_WINDOW_108675190,4.4077E-004,0.0000
 Intermediate Sky Daylight Factors,01/01,L0_ZONE1,FACE_WINDOW_108675190,4.4077E-004,0.0000
 Overcast Sky Daylight Factors,01/01,L0_ZONE1,FACE_WINDOW_108675190,4.4077E-004,0.0000
 Clear Sky Daylight Factors,01/01,L0_ZONE1,FACE_WINDOW_254773892,2.4080E-003,0.0000
 Clear Turbid Sky Daylight Factors,01/01,L0_ZONE1,FACE_WINDOW_254773892,1.8639E-003,0.0000
 Intermediate Sky Daylight Factors,01/01,L0_ZONE1,FACE_WINDOW_254773892,9.7212E-004,0.0000
 Overcast Sky Daylight Factors,01/01,L0_ZONE1,FACE_WINDOW_254773892,1.0920E-003,0.0000
 Clear Sky Daylight Factors,01/01,L0_ZONE2,FACE_WINDOW_1823539663,3.9538E-004,0.0000
 Clear Turbid Sky Daylight Factors,01/01,L0_ZONE2,FACE_WINDOW_1823539663,3.9538E-004,0.0000
 Intermediate Sky Daylight Factors,01/01,L0_ZONE2,FACE_WINDOW_1823539663,3.9538E-004,0.0000
 Overcast Sky Daylight Factors,01/01,L0_ZONE2,FACE_WINDOW_1823539663,3.9538E-004,0.0000
 Clear Sky Daylight Factors,01/01,L0_ZONE2,FACE_WINDOW_1851892756,3.0497E-004,0.0000
 Clear Turbid Sky Daylight Factors,01/01,L0_ZONE2,FACE_WINDOW_1851892756,3.0497E-004,0.0000
 Intermediate Sky Daylight Factors,01/01,L0_ZONE2,FACE_WINDOW_1851892756,3.0497E-004,0.0000
 Overcast Sky Daylight Factors,01/01,L0_ZONE2,FACE_WINDOW_1851892756,3.0497E-004,0.0000
 Clear Sky Daylight Factors,01/01,L0_ZONE2,FACE_WINDOW_5566825,3.0903E-004,0.0000
 Clear Turbid Sky Daylight Factors,01/01,L0_ZONE2,FACE_WINDOW_5566825,3.0903E-004,0.0000
 Intermediate Sky Daylight Factors,01/01,L0_ZONE2,FACE_WINDOW_5566825,3.0903E-004,0.0000
 Overcast Sky Daylight Factors,01/01,L0_ZONE2,FACE_WINDOW_5566825,3.0903E-004,0.0000
 Clear Sky Daylight Factors,01/01,L0_ZONE2,FACE_WINDOW_1819949616,3.0745E-004,0.0000
 Clear Turbid Sky Daylight Factors,01/01,L0_ZONE2,FACE_WINDOW_1819949616,3.0745E-004,0.0000
 Intermediate Sky Daylight Factors,01/01,L0_ZONE2,FACE_WINDOW_1819949616,3.0745E-004,0.0000
 Overcast Sky Daylight Factors,01/01,L0_ZONE2,FACE_WINDOW_1819949616,3.0745E-004,0.0000
 Clear Sky Daylight Factors,01/01,L0_ZONE2,FACE_WINDOW_44334275,3.8295E-004,0.0000
 Clear Turbid Sky Daylight Factors,01/01,L0_ZONE2,FACE_WINDOW_44334275,3.8295E-004,0.0000
 Intermediate Sky Daylight Factors,01/01,L0_ZONE2,FACE_WINDOW_44334275,3.8295E-004,0.0000
 Overcast Sky Daylight Factors,01/01,L0_ZONE2,FACE_WINDOW_44334275,3.8295E-004,0.0000
 Clear Sky Daylight Factors,01/01,L0_ZONE2,FACE_WINDOW_1216563958,3.0115E-003,0.0000
 Clear Turbid Sky Daylight Factors,01/01,L0_ZONE2,FACE_WINDOW_1216563958,2.8217E-003,0.0000
 Intermediate Sky Daylight Factors,01/01,L0_ZONE2,FACE_WINDOW_1216563958,2.2021E-003,0.0000
 Overcast Sky Daylight Factors,01/01,L0_ZONE2,FACE_WINDOW_1216563958,1.9194E-003,0.0000
 Clear Sky Daylight Factors,01/01,L1_ZONE1,FACE_WINDOW_1932459262,6.2942E-003,0.0000
 Clear Turbid Sky Daylight Factors,01/01,L1_ZONE1,FACE_WINDOW_1932459262,7.3201E-003,0.0000
 Intermediate Sky Daylight Factors,01/01,L1_ZONE1,FACE_WINDOW_1932459262,2.4625E-003,0.0000
 Overcast Sky Daylight Factors,01/01,L1_ZONE1,FACE_WINDOW_1932459262,1.1473E-003,0.0000
 Clear Sky Daylight Factors,01/01,L1_ZONE1,FACE_WINDOW_548439,5.4320E-003,0.0000
 Clear Turbid Sky Daylight Factors,01/01,L1_ZONE1,FACE_WINDOW_548439,4.7096E-003,0.0000
 Intermediate Sky Daylight Factors,01/01,L1_ZONE1,FACE_WINDOW_548439,3.8650E-003,0.0000
 Overcast Sky Daylight Factors,01/01,L1_ZONE1,FACE_WINDOW_548439,3.6271E-003,0.0000
 Clear Sky Daylight Factors,01/01,L1_ZONE2,FACE_WINDOW_1377655053,7.4296E-004,0.0000
 Clear Turbid Sky Daylight Factors,01/01,L1_ZONE2,FACE_WINDOW_1377655053,7.4296E-004,0.0000
 Intermediate Sky Daylight Factors,01/01,L1_ZONE2,FACE_WINDOW_1377655053,7.4296E-004,0.0000
 Overcast Sky Daylight Factors,01/01,L1_ZONE2,FACE_WINDOW_1377655053,7.4296E-004,0.0000
 Clear Sky Daylight Factors,01/01,L1_ZONE2,FACE_WINDOW_1064886591,1.6813E-003,0.0000
 Clear Turbid Sky Daylight Factors,01/01,L1_ZONE2,FACE_WINDOW_1064886591,1.6813E-003,0.0000
 Intermediate Sky Daylight Factors,01/01,L1_ZONE2,FACE_WINDOW_1064886591,1.6813E-003,0.0000
 Overcast Sky Daylight Factors,01/01,L1_ZONE2,FACE_WINDOW_1064886591,1.6813E-003,0.0000
 Clear Sky Daylight Factors,01/01,L2_ZONE1,FACE_WINDOW_1267757662,9.1483E-004,0.0000
 Clear Turbid Sky Daylight Factors,01/01,L2_ZONE1,FACE_WINDOW_1267757662,9.1483E-004,0.0000
 Intermediate Sky Daylight Factors,01/01,L2_ZONE1,FACE_WINDOW_1267757662,9.1483E-004,0.0000
 Overcast Sky Daylight Factors,01/01,L2_ZONE1,FACE_WINDOW_1267757662,9.1483E-004,0.0000
 Clear Sky Daylight Factors,01/01,L2_ZONE1,FACE_WINDOW_1634303252,2.7357E-004,0.0000
 Clear Turbid Sky Daylight Factors,01/01,L2_ZONE1,FACE_WINDOW_1634303252,2.7357E-004,0.0000
 Intermediate Sky Daylight Factors,01/01,L2_ZONE1,FACE_WINDOW_1634303252,2.7357E-004,0.0000
 Overcast Sky Daylight Factors,01/01,L2_ZONE1,FACE_WINDOW_1634303252,2.7357E-004,0.0000
 Clear Sky Daylight Factors,01/01,L2_ZONE2,FACE_WINDOW_838449156,1.6062E-003,0.0000
 Clear Turbid Sky Daylight Factors,01/01,L2_ZONE2,FACE_WINDOW_838449156,1.6062E-003,0.0000
 Intermediate Sky Daylight Factors,01/01,L2_ZONE2,FACE_WINDOW_838449156,1.6062E-003,0.0000
 Overcast Sky Daylight Factors,01/01,L2_ZONE2,FACE_WINDOW_838449156,1.6062E-003,0.0000
 Clear Sky Daylight Factors,01/01,L2_ZONE2,FACE_WINDOW_22558696,4.8499E-003,0.0000
 Clear Turbid Sky Daylight Factors,01/01,L2_ZONE2,FACE_WINDOW_22558696,4.0117E-003,0.0000
 Intermediate Sky Daylight Factors,01/01,L2_ZONE2,FACE_WINDOW_22558696,3.2482E-003,0.0000
 Overcast Sky Daylight Factors,01/01,L2_ZONE2,FACE_WINDOW_22558696,3.0029E-003,0.0000
Environment:WarmupDays,  9
! <Warmup Convergence Information>,Zone Name,Environment Type/Name,Average Warmup Temperature Difference {deltaC},Std Dev Warmup Temperature Difference {deltaC},Max Temperature Pass/Fail Convergence,Min Temperature Pass/Fail Convergence,Average Warmup Load Difference {W},Std Dev Warmup Load Difference {W},Heating Load Pass/Fail Convergence,Cooling Load Pass/Fail Convergence
 Warmup Convergence Information,L0_ZONE1,RunPeriod: FINNINGLEY - GBR IWEC Data WMO#=033600,5.2550556499E-015,6.3077866092E-015,Pass,Pass,0.2010716453,0.6425220182,Pass,Pass
 Warmup Convergence Information,L0_ZONE2,RunPeriod: FINNINGLEY - GBR IWEC Data WMO#=033600,4.9566742774E-003,2.7598423860E-002,Pass,Pass,6.2447395009E-002,0.2753692183,Pass,Pass
 Warmup Convergence Information,L1_ZONE1,RunPeriod: FINNINGLEY - GBR IWEC Data WMO#=033600,6.5873232794E-015,6.8410721998E-015,Pass,Pass,0.1878609592,1.0027241412,Pass,Pass
 Warmup Convergence Information,L1_ZONE2,RunPeriod: FINNINGLEY - GBR IWEC Data WMO#=033600,1.7886926508E-014,1.6921622008E-014,Pass,Pass,0.2217493505,1.2320474119,Pass,Pass
 Warmup Convergence Information,L2_ZONE1,RunPeriod: FINNINGLEY - GBR IWEC Data WMO#=033600,3.0000693288E-014,2.0702064367E-014,Pass,Pass,3.0669016206E-003,1.2115585482E-002,Pass,Pass
 Warmup Convergence Information,L2_ZONE2,RunPeriod: FINNINGLEY - GBR IWEC Data WMO#=033600,4.2780593882E-014,4.0472261257E-014,Pass,Pass,7.9331898785E-002,0.4458494691,Pass,Pass
! <Program Control Information:Threads/Parallel Sims>, Threading Supported,Maximum Number of Threads, Env Set Threads (OMP_NUM_THREADS), EP Env Set Threads (EP_OMP_NUM_THREADS), IDF Set Threads, Number of Threads Used (Interior Radiant Exchange), Number Nominal Surfaces, Number Parallel Sims
Program Control:Threads/Parallel Sims, No,1, N/A, N/A, N/A, N/A, N/A, N/A
End of Data
